# generated using pymatgen
data_Mn601Ni423As1024
_symmetry_space_group_name_H-M   'P 1'
_cell_length_a   29.16643240
_cell_length_b   29.16643240
_cell_length_c   40.36052800
_cell_angle_alpha   90.00000000
_cell_angle_beta   90.00000000
_cell_angle_gamma   120.00000000
_symmetry_Int_Tables_number   1
_chemical_formula_structural   Mn601Ni423As1024
_chemical_formula_sum   'Mn601 Ni423 As1024'
_cell_volume   29734.05160598
_cell_formula_units_Z   1
loop_
 _symmetry_equiv_pos_site_id
 _symmetry_equiv_pos_as_xyz
  1  'x, y, z'
loop_
 _atom_site_type_symbol
 _atom_site_label
 _atom_site_symmetry_multiplicity
 _atom_site_fract_x
 _atom_site_fract_y
 _atom_site_fract_z
 _atom_site_occupancy
  Mn  Mn0  1  0.00000000  0.00000000  0.00000000  1
  Mn  Mn1  1  0.00000000  0.00000000  0.12500000  1
  Ni  Ni2  1  0.00000000  0.00000000  0.25000000  1
  Mn  Mn3  1  0.00000000  0.00000000  0.37500000  1
  Mn  Mn4  1  0.00000000  0.00000000  0.50000000  1
  Mn  Mn5  1  0.00000000  0.00000000  0.62500000  1
  Ni  Ni6  1  0.00000000  0.00000000  0.75000000  1
  Ni  Ni7  1  0.00000000  0.00000000  0.87500000  1
  Mn  Mn8  1  0.00000000  0.12500000  0.00000000  1
  Mn  Mn9  1  0.00000000  0.12500000  0.12500000  1
  Mn  Mn10  1  0.00000000  0.12500000  0.25000000  1
  Mn  Mn11  1  0.00000000  0.12500000  0.37500000  1
  Ni  Ni12  1  0.00000000  0.12500000  0.50000000  1
  Ni  Ni13  1  0.00000000  0.12500000  0.62500000  1
  Ni  Ni14  1  0.00000000  0.12500000  0.75000000  1
  Mn  Mn15  1  0.00000000  0.12500000  0.87500000  1
  Ni  Ni16  1  0.00000000  0.25000000  0.00000000  1
  Ni  Ni17  1  0.00000000  0.25000000  0.12500000  1
  Mn  Mn18  1  0.00000000  0.25000000  0.25000000  1
  Ni  Ni19  1  0.00000000  0.25000000  0.37500000  1
  Mn  Mn20  1  0.00000000  0.25000000  0.50000000  1
  Mn  Mn21  1  0.00000000  0.25000000  0.62500000  1
  Ni  Ni22  1  0.00000000  0.25000000  0.75000000  1
  Mn  Mn23  1  0.00000000  0.25000000  0.87500000  1
  Mn  Mn24  1  0.00000000  0.37500000  0.00000000  1
  Mn  Mn25  1  0.00000000  0.37500000  0.12500000  1
  Mn  Mn26  1  0.00000000  0.37500000  0.25000000  1
  Mn  Mn27  1  0.00000000  0.37500000  0.37500000  1
  Ni  Ni28  1  0.00000000  0.37500000  0.50000000  1
  Mn  Mn29  1  0.00000000  0.37500000  0.62500000  1
  Mn  Mn30  1  0.00000000  0.37500000  0.75000000  1
  Mn  Mn31  1  0.00000000  0.37500000  0.87500000  1
  Mn  Mn32  1  0.00000000  0.50000000  0.00000000  1
  Ni  Ni33  1  0.00000000  0.50000000  0.12500000  1
  Mn  Mn34  1  0.00000000  0.50000000  0.25000000  1
  Mn  Mn35  1  0.00000000  0.50000000  0.37500000  1
  Mn  Mn36  1  0.00000000  0.50000000  0.50000000  1
  Mn  Mn37  1  0.00000000  0.50000000  0.62500000  1
  Mn  Mn38  1  0.00000000  0.50000000  0.75000000  1
  Mn  Mn39  1  0.00000000  0.50000000  0.87500000  1
  Mn  Mn40  1  0.00000000  0.62500000  0.00000000  1
  Mn  Mn41  1  0.00000000  0.62500000  0.12500000  1
  Ni  Ni42  1  0.00000000  0.62500000  0.25000000  1
  Mn  Mn43  1  0.00000000  0.62500000  0.37500000  1
  Mn  Mn44  1  0.00000000  0.62500000  0.50000000  1
  Mn  Mn45  1  0.00000000  0.62500000  0.62500000  1
  Ni  Ni46  1  0.00000000  0.62500000  0.75000000  1
  Mn  Mn47  1  0.00000000  0.62500000  0.87500000  1
  Ni  Ni48  1  0.00000000  0.75000000  0.00000000  1
  Ni  Ni49  1  0.00000000  0.75000000  0.12500000  1
  Mn  Mn50  1  0.00000000  0.75000000  0.25000000  1
  Ni  Ni51  1  0.00000000  0.75000000  0.37500000  1
  Mn  Mn52  1  0.00000000  0.75000000  0.50000000  1
  Ni  Ni53  1  0.00000000  0.75000000  0.62500000  1
  Mn  Mn54  1  0.00000000  0.75000000  0.75000000  1
  Mn  Mn55  1  0.00000000  0.75000000  0.87500000  1
  Mn  Mn56  1  0.00000000  0.87500000  0.00000000  1
  Ni  Ni57  1  0.00000000  0.87500000  0.12500000  1
  Ni  Ni58  1  0.00000000  0.87500000  0.25000000  1
  Ni  Ni59  1  0.00000000  0.87500000  0.37500000  1
  Ni  Ni60  1  0.00000000  0.87500000  0.50000000  1
  Mn  Mn61  1  0.00000000  0.87500000  0.62500000  1
  Mn  Mn62  1  0.00000000  0.87500000  0.75000000  1
  Ni  Ni63  1  0.00000000  0.87500000  0.87500000  1
  Ni  Ni64  1  0.12500000  0.00000000  0.00000000  1
  Ni  Ni65  1  0.12500000  0.00000000  0.12500000  1
  Mn  Mn66  1  0.12500000  0.00000000  0.25000000  1
  Mn  Mn67  1  0.12500000  0.00000000  0.37500000  1
  Mn  Mn68  1  0.12500000  0.00000000  0.50000000  1
  Mn  Mn69  1  0.12500000  0.00000000  0.62500000  1
  Ni  Ni70  1  0.12500000  0.00000000  0.75000000  1
  Mn  Mn71  1  0.12500000  0.00000000  0.87500000  1
  Ni  Ni72  1  0.12500000  0.12500000  0.00000000  1
  Ni  Ni73  1  0.12500000  0.12500000  0.12500000  1
  Ni  Ni74  1  0.12500000  0.12500000  0.25000000  1
  Ni  Ni75  1  0.12500000  0.12500000  0.37500000  1
  Mn  Mn76  1  0.12500000  0.12500000  0.50000000  1
  Ni  Ni77  1  0.12500000  0.12500000  0.62500000  1
  Mn  Mn78  1  0.12500000  0.12500000  0.75000000  1
  Mn  Mn79  1  0.12500000  0.12500000  0.87500000  1
  Ni  Ni80  1  0.12500000  0.25000000  0.00000000  1
  Ni  Ni81  1  0.12500000  0.25000000  0.12500000  1
  Ni  Ni82  1  0.12500000  0.25000000  0.25000000  1
  Mn  Mn83  1  0.12500000  0.25000000  0.37500000  1
  Ni  Ni84  1  0.12500000  0.25000000  0.50000000  1
  Mn  Mn85  1  0.12500000  0.25000000  0.62500000  1
  Mn  Mn86  1  0.12500000  0.25000000  0.75000000  1
  Mn  Mn87  1  0.12500000  0.25000000  0.87500000  1
  Mn  Mn88  1  0.12500000  0.37500000  0.00000000  1
  Mn  Mn89  1  0.12500000  0.37500000  0.12500000  1
  Mn  Mn90  1  0.12500000  0.37500000  0.25000000  1
  Mn  Mn91  1  0.12500000  0.37500000  0.37500000  1
  Ni  Ni92  1  0.12500000  0.37500000  0.50000000  1
  Mn  Mn93  1  0.12500000  0.37500000  0.62500000  1
  Mn  Mn94  1  0.12500000  0.37500000  0.75000000  1
  Mn  Mn95  1  0.12500000  0.37500000  0.87500000  1
  Ni  Ni96  1  0.12500000  0.50000000  0.00000000  1
  Ni  Ni97  1  0.12500000  0.50000000  0.12500000  1
  Mn  Mn98  1  0.12500000  0.50000000  0.25000000  1
  Mn  Mn99  1  0.12500000  0.50000000  0.37500000  1
  Ni  Ni100  1  0.12500000  0.50000000  0.50000000  1
  Ni  Ni101  1  0.12500000  0.50000000  0.62500000  1
  Mn  Mn102  1  0.12500000  0.50000000  0.75000000  1
  Mn  Mn103  1  0.12500000  0.50000000  0.87500000  1
  Ni  Ni104  1  0.12500000  0.62500000  0.00000000  1
  Mn  Mn105  1  0.12500000  0.62500000  0.12500000  1
  Mn  Mn106  1  0.12500000  0.62500000  0.25000000  1
  Mn  Mn107  1  0.12500000  0.62500000  0.37500000  1
  Mn  Mn108  1  0.12500000  0.62500000  0.50000000  1
  Ni  Ni109  1  0.12500000  0.62500000  0.62500000  1
  Mn  Mn110  1  0.12500000  0.62500000  0.75000000  1
  Mn  Mn111  1  0.12500000  0.62500000  0.87500000  1
  Mn  Mn112  1  0.12500000  0.75000000  0.00000000  1
  Ni  Ni113  1  0.12500000  0.75000000  0.12500000  1
  Mn  Mn114  1  0.12500000  0.75000000  0.25000000  1
  Mn  Mn115  1  0.12500000  0.75000000  0.37500000  1
  Ni  Ni116  1  0.12500000  0.75000000  0.50000000  1
  Ni  Ni117  1  0.12500000  0.75000000  0.62500000  1
  Ni  Ni118  1  0.12500000  0.75000000  0.75000000  1
  Ni  Ni119  1  0.12500000  0.75000000  0.87500000  1
  Ni  Ni120  1  0.12500000  0.87500000  0.00000000  1
  Mn  Mn121  1  0.12500000  0.87500000  0.12500000  1
  Mn  Mn122  1  0.12500000  0.87500000  0.25000000  1
  Ni  Ni123  1  0.12500000  0.87500000  0.37500000  1
  Ni  Ni124  1  0.12500000  0.87500000  0.50000000  1
  Ni  Ni125  1  0.12500000  0.87500000  0.62500000  1
  Mn  Mn126  1  0.12500000  0.87500000  0.75000000  1
  Ni  Ni127  1  0.12500000  0.87500000  0.87500000  1
  Mn  Mn128  1  0.25000000  0.00000000  0.00000000  1
  Mn  Mn129  1  0.25000000  0.00000000  0.12500000  1
  Mn  Mn130  1  0.25000000  0.00000000  0.25000000  1
  Mn  Mn131  1  0.25000000  0.00000000  0.37500000  1
  Mn  Mn132  1  0.25000000  0.00000000  0.50000000  1
  Mn  Mn133  1  0.25000000  0.00000000  0.62500000  1
  Mn  Mn134  1  0.25000000  0.00000000  0.75000000  1
  Ni  Ni135  1  0.25000000  0.00000000  0.87500000  1
  Ni  Ni136  1  0.25000000  0.12500000  0.00000000  1
  Mn  Mn137  1  0.25000000  0.12500000  0.12500000  1
  Mn  Mn138  1  0.25000000  0.12500000  0.25000000  1
  Mn  Mn139  1  0.25000000  0.12500000  0.37500000  1
  Mn  Mn140  1  0.25000000  0.12500000  0.50000000  1
  Mn  Mn141  1  0.25000000  0.12500000  0.62500000  1
  Ni  Ni142  1  0.25000000  0.12500000  0.75000000  1
  Ni  Ni143  1  0.25000000  0.12500000  0.87500000  1
  Ni  Ni144  1  0.25000000  0.25000000  0.00000000  1
  Mn  Mn145  1  0.25000000  0.25000000  0.12500000  1
  Mn  Mn146  1  0.25000000  0.25000000  0.25000000  1
  Mn  Mn147  1  0.25000000  0.25000000  0.37500000  1
  Ni  Ni148  1  0.25000000  0.25000000  0.50000000  1
  Ni  Ni149  1  0.25000000  0.25000000  0.62500000  1
  Mn  Mn150  1  0.25000000  0.25000000  0.75000000  1
  Mn  Mn151  1  0.25000000  0.25000000  0.87500000  1
  Mn  Mn152  1  0.25000000  0.37500000  0.00000000  1
  Ni  Ni153  1  0.25000000  0.37500000  0.12500000  1
  Mn  Mn154  1  0.25000000  0.37500000  0.25000000  1
  Mn  Mn155  1  0.25000000  0.37500000  0.37500000  1
  Ni  Ni156  1  0.25000000  0.37500000  0.50000000  1
  Ni  Ni157  1  0.25000000  0.37500000  0.62500000  1
  Mn  Mn158  1  0.25000000  0.37500000  0.75000000  1
  Mn  Mn159  1  0.25000000  0.37500000  0.87500000  1
  Ni  Ni160  1  0.25000000  0.50000000  0.00000000  1
  Ni  Ni161  1  0.25000000  0.50000000  0.12500000  1
  Mn  Mn162  1  0.25000000  0.50000000  0.25000000  1
  Ni  Ni163  1  0.25000000  0.50000000  0.37500000  1
  Ni  Ni164  1  0.25000000  0.50000000  0.50000000  1
  Ni  Ni165  1  0.25000000  0.50000000  0.62500000  1
  Mn  Mn166  1  0.25000000  0.50000000  0.75000000  1
  Ni  Ni167  1  0.25000000  0.50000000  0.87500000  1
  Ni  Ni168  1  0.25000000  0.62500000  0.00000000  1
  Mn  Mn169  1  0.25000000  0.62500000  0.12500000  1
  Ni  Ni170  1  0.25000000  0.62500000  0.25000000  1
  Mn  Mn171  1  0.25000000  0.62500000  0.37500000  1
  Mn  Mn172  1  0.25000000  0.62500000  0.50000000  1
  Ni  Ni173  1  0.25000000  0.62500000  0.62500000  1
  Ni  Ni174  1  0.25000000  0.62500000  0.75000000  1
  Mn  Mn175  1  0.25000000  0.62500000  0.87500000  1
  Mn  Mn176  1  0.25000000  0.75000000  0.00000000  1
  Mn  Mn177  1  0.25000000  0.75000000  0.12500000  1
  Mn  Mn178  1  0.25000000  0.75000000  0.25000000  1
  Mn  Mn179  1  0.25000000  0.75000000  0.37500000  1
  Mn  Mn180  1  0.25000000  0.75000000  0.50000000  1
  Ni  Ni181  1  0.25000000  0.75000000  0.62500000  1
  Mn  Mn182  1  0.25000000  0.75000000  0.75000000  1
  Ni  Ni183  1  0.25000000  0.75000000  0.87500000  1
  Ni  Ni184  1  0.25000000  0.87500000  0.00000000  1
  Ni  Ni185  1  0.25000000  0.87500000  0.12500000  1
  Ni  Ni186  1  0.25000000  0.87500000  0.25000000  1
  Ni  Ni187  1  0.25000000  0.87500000  0.37500000  1
  Mn  Mn188  1  0.25000000  0.87500000  0.50000000  1
  Ni  Ni189  1  0.25000000  0.87500000  0.62500000  1
  Mn  Mn190  1  0.25000000  0.87500000  0.75000000  1
  Ni  Ni191  1  0.25000000  0.87500000  0.87500000  1
  Ni  Ni192  1  0.37500000  0.00000000  0.00000000  1
  Ni  Ni193  1  0.37500000  0.00000000  0.12500000  1
  Mn  Mn194  1  0.37500000  0.00000000  0.25000000  1
  Mn  Mn195  1  0.37500000  0.00000000  0.37500000  1
  Mn  Mn196  1  0.37500000  0.00000000  0.50000000  1
  Ni  Ni197  1  0.37500000  0.00000000  0.62500000  1
  Mn  Mn198  1  0.37500000  0.00000000  0.75000000  1
  Mn  Mn199  1  0.37500000  0.00000000  0.87500000  1
  Ni  Ni200  1  0.37500000  0.12500000  0.00000000  1
  Ni  Ni201  1  0.37500000  0.12500000  0.12500000  1
  Mn  Mn202  1  0.37500000  0.12500000  0.25000000  1
  Mn  Mn203  1  0.37500000  0.12500000  0.37500000  1
  Ni  Ni204  1  0.37500000  0.12500000  0.50000000  1
  Mn  Mn205  1  0.37500000  0.12500000  0.62500000  1
  Ni  Ni206  1  0.37500000  0.12500000  0.75000000  1
  Ni  Ni207  1  0.37500000  0.12500000  0.87500000  1
  Ni  Ni208  1  0.37500000  0.25000000  0.00000000  1
  Mn  Mn209  1  0.37500000  0.25000000  0.12500000  1
  Mn  Mn210  1  0.37500000  0.25000000  0.25000000  1
  Ni  Ni211  1  0.37500000  0.25000000  0.37500000  1
  Mn  Mn212  1  0.37500000  0.25000000  0.50000000  1
  Mn  Mn213  1  0.37500000  0.25000000  0.62500000  1
  Mn  Mn214  1  0.37500000  0.25000000  0.75000000  1
  Ni  Ni215  1  0.37500000  0.25000000  0.87500000  1
  Mn  Mn216  1  0.37500000  0.37500000  0.00000000  1
  Mn  Mn217  1  0.37500000  0.37500000  0.12500000  1
  Mn  Mn218  1  0.37500000  0.37500000  0.25000000  1
  Mn  Mn219  1  0.37500000  0.37500000  0.37500000  1
  Mn  Mn220  1  0.37500000  0.37500000  0.50000000  1
  Mn  Mn221  1  0.37500000  0.37500000  0.62500000  1
  Mn  Mn222  1  0.37500000  0.37500000  0.75000000  1
  Ni  Ni223  1  0.37500000  0.37500000  0.87500000  1
  Mn  Mn224  1  0.37500000  0.50000000  0.00000000  1
  Ni  Ni225  1  0.37500000  0.50000000  0.12500000  1
  Ni  Ni226  1  0.37500000  0.50000000  0.25000000  1
  Mn  Mn227  1  0.37500000  0.50000000  0.37500000  1
  Ni  Ni228  1  0.37500000  0.50000000  0.50000000  1
  Mn  Mn229  1  0.37500000  0.50000000  0.62500000  1
  Mn  Mn230  1  0.37500000  0.50000000  0.75000000  1
  Mn  Mn231  1  0.37500000  0.50000000  0.87500000  1
  Mn  Mn232  1  0.37500000  0.62500000  0.00000000  1
  Mn  Mn233  1  0.37500000  0.62500000  0.12500000  1
  Mn  Mn234  1  0.37500000  0.62500000  0.25000000  1
  Mn  Mn235  1  0.37500000  0.62500000  0.37500000  1
  Mn  Mn236  1  0.37500000  0.62500000  0.50000000  1
  Mn  Mn237  1  0.37500000  0.62500000  0.62500000  1
  Mn  Mn238  1  0.37500000  0.62500000  0.75000000  1
  Mn  Mn239  1  0.37500000  0.62500000  0.87500000  1
  Ni  Ni240  1  0.37500000  0.75000000  0.00000000  1
  Mn  Mn241  1  0.37500000  0.75000000  0.12500000  1
  Ni  Ni242  1  0.37500000  0.75000000  0.25000000  1
  Mn  Mn243  1  0.37500000  0.75000000  0.37500000  1
  Mn  Mn244  1  0.37500000  0.75000000  0.50000000  1
  Mn  Mn245  1  0.37500000  0.75000000  0.62500000  1
  Mn  Mn246  1  0.37500000  0.75000000  0.75000000  1
  Mn  Mn247  1  0.37500000  0.75000000  0.87500000  1
  Ni  Ni248  1  0.37500000  0.87500000  0.00000000  1
  Ni  Ni249  1  0.37500000  0.87500000  0.12500000  1
  Mn  Mn250  1  0.37500000  0.87500000  0.25000000  1
  Ni  Ni251  1  0.37500000  0.87500000  0.37500000  1
  Mn  Mn252  1  0.37500000  0.87500000  0.50000000  1
  Mn  Mn253  1  0.37500000  0.87500000  0.62500000  1
  Mn  Mn254  1  0.37500000  0.87500000  0.75000000  1
  Mn  Mn255  1  0.37500000  0.87500000  0.87500000  1
  Mn  Mn256  1  0.50000000  0.00000000  0.00000000  1
  Mn  Mn257  1  0.50000000  0.00000000  0.12500000  1
  Mn  Mn258  1  0.50000000  0.00000000  0.25000000  1
  Ni  Ni259  1  0.50000000  0.00000000  0.37500000  1
  Ni  Ni260  1  0.50000000  0.00000000  0.50000000  1
  Ni  Ni261  1  0.50000000  0.00000000  0.62500000  1
  Mn  Mn262  1  0.50000000  0.00000000  0.75000000  1
  Mn  Mn263  1  0.50000000  0.00000000  0.87500000  1
  Ni  Ni264  1  0.50000000  0.12500000  0.00000000  1
  Ni  Ni265  1  0.50000000  0.12500000  0.12500000  1
  Ni  Ni266  1  0.50000000  0.12500000  0.25000000  1
  Mn  Mn267  1  0.50000000  0.12500000  0.37500000  1
  Ni  Ni268  1  0.50000000  0.12500000  0.50000000  1
  Ni  Ni269  1  0.50000000  0.12500000  0.62500000  1
  Mn  Mn270  1  0.50000000  0.12500000  0.75000000  1
  Ni  Ni271  1  0.50000000  0.12500000  0.87500000  1
  Mn  Mn272  1  0.50000000  0.25000000  0.00000000  1
  Mn  Mn273  1  0.50000000  0.25000000  0.12500000  1
  Ni  Ni274  1  0.50000000  0.25000000  0.25000000  1
  Ni  Ni275  1  0.50000000  0.25000000  0.37500000  1
  Ni  Ni276  1  0.50000000  0.25000000  0.50000000  1
  Mn  Mn277  1  0.50000000  0.25000000  0.62500000  1
  Mn  Mn278  1  0.50000000  0.25000000  0.75000000  1
  Ni  Ni279  1  0.50000000  0.25000000  0.87500000  1
  Ni  Ni280  1  0.50000000  0.37500000  0.00000000  1
  Mn  Mn281  1  0.50000000  0.37500000  0.12500000  1
  Ni  Ni282  1  0.50000000  0.37500000  0.25000000  1
  Mn  Mn283  1  0.50000000  0.37500000  0.37500000  1
  Mn  Mn284  1  0.50000000  0.37500000  0.50000000  1
  Mn  Mn285  1  0.50000000  0.37500000  0.62500000  1
  Ni  Ni286  1  0.50000000  0.37500000  0.75000000  1
  Mn  Mn287  1  0.50000000  0.37500000  0.87500000  1
  Mn  Mn288  1  0.50000000  0.50000000  0.00000000  1
  Mn  Mn289  1  0.50000000  0.50000000  0.12500000  1
  Mn  Mn290  1  0.50000000  0.50000000  0.25000000  1
  Ni  Ni291  1  0.50000000  0.50000000  0.37500000  1
  Ni  Ni292  1  0.50000000  0.50000000  0.50000000  1
  Mn  Mn293  1  0.50000000  0.50000000  0.62500000  1
  Ni  Ni294  1  0.50000000  0.50000000  0.75000000  1
  Ni  Ni295  1  0.50000000  0.50000000  0.87500000  1
  Ni  Ni296  1  0.50000000  0.62500000  0.00000000  1
  Mn  Mn297  1  0.50000000  0.62500000  0.12500000  1
  Mn  Mn298  1  0.50000000  0.62500000  0.25000000  1
  Ni  Ni299  1  0.50000000  0.62500000  0.37500000  1
  Mn  Mn300  1  0.50000000  0.62500000  0.50000000  1
  Mn  Mn301  1  0.50000000  0.62500000  0.62500000  1
  Mn  Mn302  1  0.50000000  0.62500000  0.75000000  1
  Mn  Mn303  1  0.50000000  0.62500000  0.87500000  1
  Mn  Mn304  1  0.50000000  0.75000000  0.00000000  1
  Mn  Mn305  1  0.50000000  0.75000000  0.12500000  1
  Mn  Mn306  1  0.50000000  0.75000000  0.25000000  1
  Mn  Mn307  1  0.50000000  0.75000000  0.37500000  1
  Mn  Mn308  1  0.50000000  0.75000000  0.50000000  1
  Mn  Mn309  1  0.50000000  0.75000000  0.62500000  1
  Mn  Mn310  1  0.50000000  0.75000000  0.75000000  1
  Mn  Mn311  1  0.50000000  0.75000000  0.87500000  1
  Mn  Mn312  1  0.50000000  0.87500000  0.00000000  1
  Ni  Ni313  1  0.50000000  0.87500000  0.12500000  1
  Mn  Mn314  1  0.50000000  0.87500000  0.25000000  1
  Ni  Ni315  1  0.50000000  0.87500000  0.37500000  1
  Mn  Mn316  1  0.50000000  0.87500000  0.50000000  1
  Mn  Mn317  1  0.50000000  0.87500000  0.62500000  1
  Ni  Ni318  1  0.50000000  0.87500000  0.75000000  1
  Mn  Mn319  1  0.50000000  0.87500000  0.87500000  1
  Mn  Mn320  1  0.62500000  0.00000000  0.00000000  1
  Mn  Mn321  1  0.62500000  0.00000000  0.12500000  1
  Ni  Ni322  1  0.62500000  0.00000000  0.25000000  1
  Mn  Mn323  1  0.62500000  0.00000000  0.37500000  1
  Ni  Ni324  1  0.62500000  0.00000000  0.50000000  1
  Ni  Ni325  1  0.62500000  0.00000000  0.62500000  1
  Mn  Mn326  1  0.62500000  0.00000000  0.75000000  1
  Mn  Mn327  1  0.62500000  0.00000000  0.87500000  1
  Ni  Ni328  1  0.62500000  0.12500000  0.00000000  1
  Mn  Mn329  1  0.62500000  0.12500000  0.12500000  1
  Ni  Ni330  1  0.62500000  0.12500000  0.25000000  1
  Ni  Ni331  1  0.62500000  0.12500000  0.37500000  1
  Mn  Mn332  1  0.62500000  0.12500000  0.50000000  1
  Mn  Mn333  1  0.62500000  0.12500000  0.62500000  1
  Mn  Mn334  1  0.62500000  0.12500000  0.75000000  1
  Ni  Ni335  1  0.62500000  0.12500000  0.87500000  1
  Ni  Ni336  1  0.62500000  0.25000000  0.00000000  1
  Ni  Ni337  1  0.62500000  0.25000000  0.12500000  1
  Ni  Ni338  1  0.62500000  0.25000000  0.25000000  1
  Ni  Ni339  1  0.62500000  0.25000000  0.37500000  1
  Mn  Mn340  1  0.62500000  0.25000000  0.50000000  1
  Ni  Ni341  1  0.62500000  0.25000000  0.62500000  1
  Mn  Mn342  1  0.62500000  0.25000000  0.75000000  1
  Mn  Mn343  1  0.62500000  0.25000000  0.87500000  1
  Mn  Mn344  1  0.62500000  0.37500000  0.00000000  1
  Ni  Ni345  1  0.62500000  0.37500000  0.12500000  1
  Mn  Mn346  1  0.62500000  0.37500000  0.25000000  1
  Ni  Ni347  1  0.62500000  0.37500000  0.37500000  1
  Mn  Mn348  1  0.62500000  0.37500000  0.50000000  1
  Ni  Ni349  1  0.62500000  0.37500000  0.62500000  1
  Mn  Mn350  1  0.62500000  0.37500000  0.75000000  1
  Mn  Mn351  1  0.62500000  0.37500000  0.87500000  1
  Ni  Ni352  1  0.62500000  0.50000000  0.00000000  1
  Ni  Ni353  1  0.62500000  0.50000000  0.12500000  1
  Mn  Mn354  1  0.62500000  0.50000000  0.25000000  1
  Ni  Ni355  1  0.62500000  0.50000000  0.37500000  1
  Ni  Ni356  1  0.62500000  0.50000000  0.50000000  1
  Mn  Mn357  1  0.62500000  0.50000000  0.62500000  1
  Ni  Ni358  1  0.62500000  0.50000000  0.75000000  1
  Mn  Mn359  1  0.62500000  0.50000000  0.87500000  1
  Mn  Mn360  1  0.62500000  0.62500000  0.00000000  1
  Mn  Mn361  1  0.62500000  0.62500000  0.12500000  1
  Mn  Mn362  1  0.62500000  0.62500000  0.25000000  1
  Ni  Ni363  1  0.62500000  0.62500000  0.37500000  1
  Mn  Mn364  1  0.62500000  0.62500000  0.50000000  1
  Mn  Mn365  1  0.62500000  0.62500000  0.62500000  1
  Ni  Ni366  1  0.62500000  0.62500000  0.75000000  1
  Mn  Mn367  1  0.62500000  0.62500000  0.87500000  1
  Mn  Mn368  1  0.62500000  0.75000000  0.00000000  1
  Mn  Mn369  1  0.62500000  0.75000000  0.12500000  1
  Ni  Ni370  1  0.62500000  0.75000000  0.25000000  1
  Ni  Ni371  1  0.62500000  0.75000000  0.37500000  1
  Ni  Ni372  1  0.62500000  0.75000000  0.50000000  1
  Mn  Mn373  1  0.62500000  0.75000000  0.62500000  1
  Mn  Mn374  1  0.62500000  0.75000000  0.75000000  1
  Ni  Ni375  1  0.62500000  0.75000000  0.87500000  1
  Mn  Mn376  1  0.62500000  0.87500000  0.00000000  1
  Ni  Ni377  1  0.62500000  0.87500000  0.12500000  1
  Mn  Mn378  1  0.62500000  0.87500000  0.25000000  1
  Ni  Ni379  1  0.62500000  0.87500000  0.37500000  1
  Ni  Ni380  1  0.62500000  0.87500000  0.50000000  1
  Mn  Mn381  1  0.62500000  0.87500000  0.62500000  1
  Mn  Mn382  1  0.62500000  0.87500000  0.75000000  1
  Mn  Mn383  1  0.62500000  0.87500000  0.87500000  1
  Mn  Mn384  1  0.75000000  0.00000000  0.00000000  1
  Mn  Mn385  1  0.75000000  0.00000000  0.12500000  1
  Mn  Mn386  1  0.75000000  0.00000000  0.25000000  1
  Mn  Mn387  1  0.75000000  0.00000000  0.37500000  1
  Ni  Ni388  1  0.75000000  0.00000000  0.50000000  1
  Mn  Mn389  1  0.75000000  0.00000000  0.62500000  1
  Mn  Mn390  1  0.75000000  0.00000000  0.75000000  1
  Mn  Mn391  1  0.75000000  0.00000000  0.87500000  1
  Ni  Ni392  1  0.75000000  0.12500000  0.00000000  1
  Mn  Mn393  1  0.75000000  0.12500000  0.12500000  1
  Mn  Mn394  1  0.75000000  0.12500000  0.25000000  1
  Mn  Mn395  1  0.75000000  0.12500000  0.37500000  1
  Mn  Mn396  1  0.75000000  0.12500000  0.50000000  1
  Mn  Mn397  1  0.75000000  0.12500000  0.62500000  1
  Ni  Ni398  1  0.75000000  0.12500000  0.75000000  1
  Ni  Ni399  1  0.75000000  0.12500000  0.87500000  1
  Ni  Ni400  1  0.75000000  0.25000000  0.00000000  1
  Mn  Mn401  1  0.75000000  0.25000000  0.12500000  1
  Mn  Mn402  1  0.75000000  0.25000000  0.25000000  1
  Mn  Mn403  1  0.75000000  0.25000000  0.37500000  1
  Ni  Ni404  1  0.75000000  0.25000000  0.50000000  1
  Ni  Ni405  1  0.75000000  0.25000000  0.62500000  1
  Mn  Mn406  1  0.75000000  0.25000000  0.75000000  1
  Mn  Mn407  1  0.75000000  0.25000000  0.87500000  1
  Ni  Ni408  1  0.75000000  0.37500000  0.00000000  1
  Mn  Mn409  1  0.75000000  0.37500000  0.12500000  1
  Ni  Ni410  1  0.75000000  0.37500000  0.25000000  1
  Mn  Mn411  1  0.75000000  0.37500000  0.37500000  1
  Mn  Mn412  1  0.75000000  0.37500000  0.50000000  1
  Mn  Mn413  1  0.75000000  0.37500000  0.62500000  1
  Mn  Mn414  1  0.75000000  0.37500000  0.75000000  1
  Ni  Ni415  1  0.75000000  0.37500000  0.87500000  1
  Mn  Mn416  1  0.75000000  0.50000000  0.00000000  1
  Ni  Ni417  1  0.75000000  0.50000000  0.12500000  1
  Mn  Mn418  1  0.75000000  0.50000000  0.25000000  1
  Mn  Mn419  1  0.75000000  0.50000000  0.37500000  1
  Ni  Ni420  1  0.75000000  0.50000000  0.50000000  1
  Ni  Ni421  1  0.75000000  0.50000000  0.62500000  1
  Mn  Mn422  1  0.75000000  0.50000000  0.75000000  1
  Mn  Mn423  1  0.75000000  0.50000000  0.87500000  1
  Ni  Ni424  1  0.75000000  0.62500000  0.00000000  1
  Mn  Mn425  1  0.75000000  0.62500000  0.12500000  1
  Ni  Ni426  1  0.75000000  0.62500000  0.25000000  1
  Ni  Ni427  1  0.75000000  0.62500000  0.37500000  1
  Ni  Ni428  1  0.75000000  0.62500000  0.50000000  1
  Mn  Mn429  1  0.75000000  0.62500000  0.62500000  1
  Mn  Mn430  1  0.75000000  0.62500000  0.75000000  1
  Mn  Mn431  1  0.75000000  0.62500000  0.87500000  1
  Ni  Ni432  1  0.75000000  0.75000000  0.00000000  1
  Ni  Ni433  1  0.75000000  0.75000000  0.12500000  1
  Mn  Mn434  1  0.75000000  0.75000000  0.25000000  1
  Mn  Mn435  1  0.75000000  0.75000000  0.37500000  1
  Ni  Ni436  1  0.75000000  0.75000000  0.50000000  1
  Mn  Mn437  1  0.75000000  0.75000000  0.62500000  1
  Ni  Ni438  1  0.75000000  0.75000000  0.75000000  1
  Ni  Ni439  1  0.75000000  0.75000000  0.87500000  1
  Ni  Ni440  1  0.75000000  0.87500000  0.00000000  1
  Ni  Ni441  1  0.75000000  0.87500000  0.12500000  1
  Mn  Mn442  1  0.75000000  0.87500000  0.25000000  1
  Mn  Mn443  1  0.75000000  0.87500000  0.37500000  1
  Mn  Mn444  1  0.75000000  0.87500000  0.50000000  1
  Ni  Ni445  1  0.75000000  0.87500000  0.62500000  1
  Ni  Ni446  1  0.75000000  0.87500000  0.75000000  1
  Ni  Ni447  1  0.75000000  0.87500000  0.87500000  1
  Mn  Mn448  1  0.87500000  0.00000000  0.00000000  1
  Ni  Ni449  1  0.87500000  0.00000000  0.12500000  1
  Ni  Ni450  1  0.87500000  0.00000000  0.25000000  1
  Mn  Mn451  1  0.87500000  0.00000000  0.37500000  1
  Mn  Mn452  1  0.87500000  0.00000000  0.50000000  1
  Ni  Ni453  1  0.87500000  0.00000000  0.62500000  1
  Ni  Ni454  1  0.87500000  0.00000000  0.75000000  1
  Mn  Mn455  1  0.87500000  0.00000000  0.87500000  1
  Mn  Mn456  1  0.87500000  0.12500000  0.00000000  1
  Ni  Ni457  1  0.87500000  0.12500000  0.12500000  1
  Mn  Mn458  1  0.87500000  0.12500000  0.25000000  1
  Ni  Ni459  1  0.87500000  0.12500000  0.37500000  1
  Mn  Mn460  1  0.87500000  0.12500000  0.50000000  1
  Ni  Ni461  1  0.87500000  0.12500000  0.62500000  1
  Mn  Mn462  1  0.87500000  0.12500000  0.75000000  1
  Ni  Ni463  1  0.87500000  0.12500000  0.87500000  1
  Ni  Ni464  1  0.87500000  0.25000000  0.00000000  1
  Mn  Mn465  1  0.87500000  0.25000000  0.12500000  1
  Ni  Ni466  1  0.87500000  0.25000000  0.25000000  1
  Ni  Ni467  1  0.87500000  0.25000000  0.37500000  1
  Mn  Mn468  1  0.87500000  0.25000000  0.50000000  1
  Ni  Ni469  1  0.87500000  0.25000000  0.62500000  1
  Mn  Mn470  1  0.87500000  0.25000000  0.75000000  1
  Mn  Mn471  1  0.87500000  0.25000000  0.87500000  1
  Ni  Ni472  1  0.87500000  0.37500000  0.00000000  1
  Mn  Mn473  1  0.87500000  0.37500000  0.12500000  1
  Mn  Mn474  1  0.87500000  0.37500000  0.25000000  1
  Mn  Mn475  1  0.87500000  0.37500000  0.37500000  1
  Ni  Ni476  1  0.87500000  0.37500000  0.50000000  1
  Mn  Mn477  1  0.87500000  0.37500000  0.62500000  1
  Ni  Ni478  1  0.87500000  0.37500000  0.75000000  1
  Ni  Ni479  1  0.87500000  0.37500000  0.87500000  1
  Ni  Ni480  1  0.87500000  0.50000000  0.00000000  1
  Ni  Ni481  1  0.87500000  0.50000000  0.12500000  1
  Mn  Mn482  1  0.87500000  0.50000000  0.25000000  1
  Ni  Ni483  1  0.87500000  0.50000000  0.37500000  1
  Mn  Mn484  1  0.87500000  0.50000000  0.50000000  1
  Ni  Ni485  1  0.87500000  0.50000000  0.62500000  1
  Mn  Mn486  1  0.87500000  0.50000000  0.75000000  1
  Ni  Ni487  1  0.87500000  0.50000000  0.87500000  1
  Mn  Mn488  1  0.87500000  0.62500000  0.00000000  1
  Mn  Mn489  1  0.87500000  0.62500000  0.12500000  1
  Ni  Ni490  1  0.87500000  0.62500000  0.25000000  1
  Mn  Mn491  1  0.87500000  0.62500000  0.37500000  1
  Mn  Mn492  1  0.87500000  0.62500000  0.50000000  1
  Mn  Mn493  1  0.87500000  0.62500000  0.62500000  1
  Mn  Mn494  1  0.87500000  0.62500000  0.75000000  1
  Mn  Mn495  1  0.87500000  0.62500000  0.87500000  1
  Mn  Mn496  1  0.87500000  0.75000000  0.00000000  1
  Ni  Ni497  1  0.87500000  0.75000000  0.12500000  1
  Mn  Mn498  1  0.87500000  0.75000000  0.25000000  1
  Mn  Mn499  1  0.87500000  0.75000000  0.37500000  1
  Ni  Ni500  1  0.87500000  0.75000000  0.50000000  1
  Mn  Mn501  1  0.87500000  0.75000000  0.62500000  1
  Mn  Mn502  1  0.87500000  0.75000000  0.75000000  1
  Mn  Mn503  1  0.87500000  0.75000000  0.87500000  1
  Ni  Ni504  1  0.87500000  0.87500000  0.00000000  1
  Mn  Mn505  1  0.87500000  0.87500000  0.12500000  1
  Ni  Ni506  1  0.87500000  0.87500000  0.25000000  1
  Ni  Ni507  1  0.87500000  0.87500000  0.37500000  1
  Ni  Ni508  1  0.87500000  0.87500000  0.50000000  1
  Mn  Mn509  1  0.87500000  0.87500000  0.62500000  1
  Mn  Mn510  1  0.87500000  0.87500000  0.75000000  1
  Mn  Mn511  1  0.87500000  0.87500000  0.87500000  1
  Ni  Ni512  1  0.00000000  0.00000000  0.06250000  1
  Mn  Mn513  1  0.00000000  0.00000000  0.18750000  1
  Mn  Mn514  1  0.00000000  0.00000000  0.31250000  1
  Ni  Ni515  1  0.00000000  0.00000000  0.43750000  1
  Ni  Ni516  1  0.00000000  0.00000000  0.56250000  1
  Mn  Mn517  1  0.00000000  0.00000000  0.68750000  1
  Mn  Mn518  1  0.00000000  0.00000000  0.81250000  1
  Ni  Ni519  1  0.00000000  0.00000000  0.93750000  1
  Mn  Mn520  1  0.00000000  0.12500000  0.06250000  1
  Mn  Mn521  1  0.00000000  0.12500000  0.18750000  1
  Mn  Mn522  1  0.00000000  0.12500000  0.31250000  1
  Ni  Ni523  1  0.00000000  0.12500000  0.43750000  1
  Ni  Ni524  1  0.00000000  0.12500000  0.56250000  1
  Mn  Mn525  1  0.00000000  0.12500000  0.68750000  1
  Ni  Ni526  1  0.00000000  0.12500000  0.81250000  1
  Mn  Mn527  1  0.00000000  0.12500000  0.93750000  1
  Mn  Mn528  1  0.00000000  0.25000000  0.06250000  1
  Ni  Ni529  1  0.00000000  0.25000000  0.18750000  1
  Ni  Ni530  1  0.00000000  0.25000000  0.31250000  1
  Ni  Ni531  1  0.00000000  0.25000000  0.43750000  1
  Mn  Mn532  1  0.00000000  0.25000000  0.56250000  1
  Ni  Ni533  1  0.00000000  0.25000000  0.68750000  1
  Mn  Mn534  1  0.00000000  0.25000000  0.81250000  1
  Mn  Mn535  1  0.00000000  0.25000000  0.93750000  1
  Ni  Ni536  1  0.00000000  0.37500000  0.06250000  1
  Mn  Mn537  1  0.00000000  0.37500000  0.18750000  1
  Ni  Ni538  1  0.00000000  0.37500000  0.31250000  1
  Mn  Mn539  1  0.00000000  0.37500000  0.43750000  1
  Mn  Mn540  1  0.00000000  0.37500000  0.56250000  1
  Mn  Mn541  1  0.00000000  0.37500000  0.68750000  1
  Mn  Mn542  1  0.00000000  0.37500000  0.81250000  1
  Ni  Ni543  1  0.00000000  0.37500000  0.93750000  1
  Ni  Ni544  1  0.00000000  0.50000000  0.06250000  1
  Ni  Ni545  1  0.00000000  0.50000000  0.18750000  1
  Mn  Mn546  1  0.00000000  0.50000000  0.31250000  1
  Mn  Mn547  1  0.00000000  0.50000000  0.43750000  1
  Mn  Mn548  1  0.00000000  0.50000000  0.56250000  1
  Mn  Mn549  1  0.00000000  0.50000000  0.68750000  1
  Mn  Mn550  1  0.00000000  0.50000000  0.81250000  1
  Ni  Ni551  1  0.00000000  0.50000000  0.93750000  1
  Ni  Ni552  1  0.00000000  0.62500000  0.06250000  1
  Mn  Mn553  1  0.00000000  0.62500000  0.18750000  1
  Mn  Mn554  1  0.00000000  0.62500000  0.31250000  1
  Mn  Mn555  1  0.00000000  0.62500000  0.43750000  1
  Mn  Mn556  1  0.00000000  0.62500000  0.56250000  1
  Ni  Ni557  1  0.00000000  0.62500000  0.68750000  1
  Mn  Mn558  1  0.00000000  0.62500000  0.81250000  1
  Mn  Mn559  1  0.00000000  0.62500000  0.93750000  1
  Mn  Mn560  1  0.00000000  0.75000000  0.06250000  1
  Mn  Mn561  1  0.00000000  0.75000000  0.18750000  1
  Mn  Mn562  1  0.00000000  0.75000000  0.31250000  1
  Mn  Mn563  1  0.00000000  0.75000000  0.43750000  1
  Mn  Mn564  1  0.00000000  0.75000000  0.56250000  1
  Ni  Ni565  1  0.00000000  0.75000000  0.68750000  1
  Ni  Ni566  1  0.00000000  0.75000000  0.81250000  1
  Ni  Ni567  1  0.00000000  0.75000000  0.93750000  1
  Mn  Mn568  1  0.00000000  0.87500000  0.06250000  1
  Ni  Ni569  1  0.00000000  0.87500000  0.18750000  1
  Ni  Ni570  1  0.00000000  0.87500000  0.31250000  1
  Ni  Ni571  1  0.00000000  0.87500000  0.43750000  1
  Mn  Mn572  1  0.00000000  0.87500000  0.56250000  1
  Ni  Ni573  1  0.00000000  0.87500000  0.68750000  1
  Ni  Ni574  1  0.00000000  0.87500000  0.81250000  1
  Mn  Mn575  1  0.00000000  0.87500000  0.93750000  1
  Ni  Ni576  1  0.12500000  0.00000000  0.06250000  1
  Mn  Mn577  1  0.12500000  0.00000000  0.18750000  1
  Ni  Ni578  1  0.12500000  0.00000000  0.31250000  1
  Mn  Mn579  1  0.12500000  0.00000000  0.43750000  1
  Ni  Ni580  1  0.12500000  0.00000000  0.56250000  1
  Mn  Mn581  1  0.12500000  0.00000000  0.68750000  1
  Mn  Mn582  1  0.12500000  0.00000000  0.81250000  1
  Ni  Ni583  1  0.12500000  0.00000000  0.93750000  1
  Mn  Mn584  1  0.12500000  0.12500000  0.06250000  1
  Mn  Mn585  1  0.12500000  0.12500000  0.18750000  1
  Mn  Mn586  1  0.12500000  0.12500000  0.31250000  1
  Mn  Mn587  1  0.12500000  0.12500000  0.43750000  1
  Ni  Ni588  1  0.12500000  0.12500000  0.56250000  1
  Mn  Mn589  1  0.12500000  0.12500000  0.68750000  1
  Ni  Ni590  1  0.12500000  0.12500000  0.81250000  1
  Ni  Ni591  1  0.12500000  0.12500000  0.93750000  1
  Mn  Mn592  1  0.12500000  0.25000000  0.06250000  1
  Mn  Mn593  1  0.12500000  0.25000000  0.18750000  1
  Mn  Mn594  1  0.12500000  0.25000000  0.31250000  1
  Mn  Mn595  1  0.12500000  0.25000000  0.43750000  1
  Mn  Mn596  1  0.12500000  0.25000000  0.56250000  1
  Ni  Ni597  1  0.12500000  0.25000000  0.68750000  1
  Ni  Ni598  1  0.12500000  0.25000000  0.81250000  1
  Mn  Mn599  1  0.12500000  0.25000000  0.93750000  1
  Mn  Mn600  1  0.12500000  0.37500000  0.06250000  1
  Mn  Mn601  1  0.12500000  0.37500000  0.18750000  1
  Ni  Ni602  1  0.12500000  0.37500000  0.31250000  1
  Ni  Ni603  1  0.12500000  0.37500000  0.43750000  1
  Mn  Mn604  1  0.12500000  0.37500000  0.56250000  1
  Mn  Mn605  1  0.12500000  0.37500000  0.68750000  1
  Mn  Mn606  1  0.12500000  0.37500000  0.81250000  1
  Mn  Mn607  1  0.12500000  0.37500000  0.93750000  1
  Mn  Mn608  1  0.12500000  0.50000000  0.06250000  1
  Mn  Mn609  1  0.12500000  0.50000000  0.18750000  1
  Ni  Ni610  1  0.12500000  0.50000000  0.31250000  1
  Mn  Mn611  1  0.12500000  0.50000000  0.43750000  1
  Mn  Mn612  1  0.12500000  0.50000000  0.56250000  1
  Mn  Mn613  1  0.12500000  0.50000000  0.68750000  1
  Ni  Ni614  1  0.12500000  0.50000000  0.81250000  1
  Ni  Ni615  1  0.12500000  0.50000000  0.93750000  1
  Mn  Mn616  1  0.12500000  0.62500000  0.06250000  1
  Mn  Mn617  1  0.12500000  0.62500000  0.18750000  1
  Ni  Ni618  1  0.12500000  0.62500000  0.31250000  1
  Mn  Mn619  1  0.12500000  0.62500000  0.43750000  1
  Ni  Ni620  1  0.12500000  0.62500000  0.56250000  1
  Mn  Mn621  1  0.12500000  0.62500000  0.68750000  1
  Mn  Mn622  1  0.12500000  0.62500000  0.81250000  1
  Ni  Ni623  1  0.12500000  0.62500000  0.93750000  1
  Ni  Ni624  1  0.12500000  0.75000000  0.06250000  1
  Mn  Mn625  1  0.12500000  0.75000000  0.18750000  1
  Ni  Ni626  1  0.12500000  0.75000000  0.31250000  1
  Mn  Mn627  1  0.12500000  0.75000000  0.43750000  1
  Ni  Ni628  1  0.12500000  0.75000000  0.56250000  1
  Mn  Mn629  1  0.12500000  0.75000000  0.68750000  1
  Mn  Mn630  1  0.12500000  0.75000000  0.81250000  1
  Mn  Mn631  1  0.12500000  0.75000000  0.93750000  1
  Ni  Ni632  1  0.12500000  0.87500000  0.06250000  1
  Ni  Ni633  1  0.12500000  0.87500000  0.18750000  1
  Mn  Mn634  1  0.12500000  0.87500000  0.31250000  1
  Mn  Mn635  1  0.12500000  0.87500000  0.43750000  1
  Ni  Ni636  1  0.12500000  0.87500000  0.56250000  1
  Ni  Ni637  1  0.12500000  0.87500000  0.68750000  1
  Mn  Mn638  1  0.12500000  0.87500000  0.81250000  1
  Mn  Mn639  1  0.12500000  0.87500000  0.93750000  1
  Mn  Mn640  1  0.25000000  0.00000000  0.06250000  1
  Ni  Ni641  1  0.25000000  0.00000000  0.18750000  1
  Mn  Mn642  1  0.25000000  0.00000000  0.31250000  1
  Mn  Mn643  1  0.25000000  0.00000000  0.43750000  1
  Mn  Mn644  1  0.25000000  0.00000000  0.56250000  1
  Ni  Ni645  1  0.25000000  0.00000000  0.68750000  1
  Mn  Mn646  1  0.25000000  0.00000000  0.81250000  1
  Mn  Mn647  1  0.25000000  0.00000000  0.93750000  1
  Ni  Ni648  1  0.25000000  0.12500000  0.06250000  1
  Ni  Ni649  1  0.25000000  0.12500000  0.18750000  1
  Ni  Ni650  1  0.25000000  0.12500000  0.31250000  1
  Mn  Mn651  1  0.25000000  0.12500000  0.43750000  1
  Mn  Mn652  1  0.25000000  0.12500000  0.56250000  1
  Mn  Mn653  1  0.25000000  0.12500000  0.68750000  1
  Ni  Ni654  1  0.25000000  0.12500000  0.81250000  1
  Ni  Ni655  1  0.25000000  0.12500000  0.93750000  1
  Ni  Ni656  1  0.25000000  0.25000000  0.06250000  1
  Ni  Ni657  1  0.25000000  0.25000000  0.18750000  1
  Mn  Mn658  1  0.25000000  0.25000000  0.31250000  1
  Ni  Ni659  1  0.25000000  0.25000000  0.43750000  1
  Mn  Mn660  1  0.25000000  0.25000000  0.56250000  1
  Ni  Ni661  1  0.25000000  0.25000000  0.68750000  1
  Mn  Mn662  1  0.25000000  0.25000000  0.81250000  1
  Mn  Mn663  1  0.25000000  0.25000000  0.93750000  1
  Mn  Mn664  1  0.25000000  0.37500000  0.06250000  1
  Mn  Mn665  1  0.25000000  0.37500000  0.18750000  1
  Ni  Ni666  1  0.25000000  0.37500000  0.31250000  1
  Mn  Mn667  1  0.25000000  0.37500000  0.43750000  1
  Ni  Ni668  1  0.25000000  0.37500000  0.56250000  1
  Mn  Mn669  1  0.25000000  0.37500000  0.68750000  1
  Mn  Mn670  1  0.25000000  0.37500000  0.81250000  1
  Mn  Mn671  1  0.25000000  0.37500000  0.93750000  1
  Ni  Ni672  1  0.25000000  0.50000000  0.06250000  1
  Ni  Ni673  1  0.25000000  0.50000000  0.18750000  1
  Mn  Mn674  1  0.25000000  0.50000000  0.31250000  1
  Mn  Mn675  1  0.25000000  0.50000000  0.43750000  1
  Ni  Ni676  1  0.25000000  0.50000000  0.56250000  1
  Ni  Ni677  1  0.25000000  0.50000000  0.68750000  1
  Mn  Mn678  1  0.25000000  0.50000000  0.81250000  1
  Ni  Ni679  1  0.25000000  0.50000000  0.93750000  1
  Mn  Mn680  1  0.25000000  0.62500000  0.06250000  1
  Mn  Mn681  1  0.25000000  0.62500000  0.18750000  1
  Mn  Mn682  1  0.25000000  0.62500000  0.31250000  1
  Mn  Mn683  1  0.25000000  0.62500000  0.43750000  1
  Mn  Mn684  1  0.25000000  0.62500000  0.56250000  1
  Mn  Mn685  1  0.25000000  0.62500000  0.68750000  1
  Mn  Mn686  1  0.25000000  0.62500000  0.81250000  1
  Mn  Mn687  1  0.25000000  0.62500000  0.93750000  1
  Mn  Mn688  1  0.25000000  0.75000000  0.06250000  1
  Ni  Ni689  1  0.25000000  0.75000000  0.18750000  1
  Ni  Ni690  1  0.25000000  0.75000000  0.31250000  1
  Mn  Mn691  1  0.25000000  0.75000000  0.43750000  1
  Mn  Mn692  1  0.25000000  0.75000000  0.56250000  1
  Ni  Ni693  1  0.25000000  0.75000000  0.68750000  1
  Mn  Mn694  1  0.25000000  0.75000000  0.81250000  1
  Mn  Mn695  1  0.25000000  0.75000000  0.93750000  1
  Ni  Ni696  1  0.25000000  0.87500000  0.06250000  1
  Mn  Mn697  1  0.25000000  0.87500000  0.18750000  1
  Mn  Mn698  1  0.25000000  0.87500000  0.31250000  1
  Ni  Ni699  1  0.25000000  0.87500000  0.43750000  1
  Mn  Mn700  1  0.25000000  0.87500000  0.56250000  1
  Ni  Ni701  1  0.25000000  0.87500000  0.68750000  1
  Mn  Mn702  1  0.25000000  0.87500000  0.81250000  1
  Mn  Mn703  1  0.25000000  0.87500000  0.93750000  1
  Ni  Ni704  1  0.37500000  0.00000000  0.06250000  1
  Mn  Mn705  1  0.37500000  0.00000000  0.18750000  1
  Ni  Ni706  1  0.37500000  0.00000000  0.31250000  1
  Ni  Ni707  1  0.37500000  0.00000000  0.43750000  1
  Ni  Ni708  1  0.37500000  0.00000000  0.56250000  1
  Ni  Ni709  1  0.37500000  0.00000000  0.68750000  1
  Ni  Ni710  1  0.37500000  0.00000000  0.81250000  1
  Ni  Ni711  1  0.37500000  0.00000000  0.93750000  1
  Ni  Ni712  1  0.37500000  0.12500000  0.06250000  1
  Mn  Mn713  1  0.37500000  0.12500000  0.18750000  1
  Mn  Mn714  1  0.37500000  0.12500000  0.31250000  1
  Ni  Ni715  1  0.37500000  0.12500000  0.43750000  1
  Ni  Ni716  1  0.37500000  0.12500000  0.56250000  1
  Mn  Mn717  1  0.37500000  0.12500000  0.68750000  1
  Ni  Ni718  1  0.37500000  0.12500000  0.81250000  1
  Mn  Mn719  1  0.37500000  0.12500000  0.93750000  1
  Mn  Mn720  1  0.37500000  0.25000000  0.06250000  1
  Mn  Mn721  1  0.37500000  0.25000000  0.18750000  1
  Mn  Mn722  1  0.37500000  0.25000000  0.31250000  1
  Ni  Ni723  1  0.37500000  0.25000000  0.43750000  1
  Mn  Mn724  1  0.37500000  0.25000000  0.56250000  1
  Ni  Ni725  1  0.37500000  0.25000000  0.68750000  1
  Mn  Mn726  1  0.37500000  0.25000000  0.81250000  1
  Mn  Mn727  1  0.37500000  0.25000000  0.93750000  1
  Ni  Ni728  1  0.37500000  0.37500000  0.06250000  1
  Mn  Mn729  1  0.37500000  0.37500000  0.18750000  1
  Ni  Ni730  1  0.37500000  0.37500000  0.31250000  1
  Mn  Mn731  1  0.37500000  0.37500000  0.43750000  1
  Ni  Ni732  1  0.37500000  0.37500000  0.56250000  1
  Mn  Mn733  1  0.37500000  0.37500000  0.68750000  1
  Mn  Mn734  1  0.37500000  0.37500000  0.81250000  1
  Ni  Ni735  1  0.37500000  0.37500000  0.93750000  1
  Mn  Mn736  1  0.37500000  0.50000000  0.06250000  1
  Mn  Mn737  1  0.37500000  0.50000000  0.18750000  1
  Mn  Mn738  1  0.37500000  0.50000000  0.31250000  1
  Mn  Mn739  1  0.37500000  0.50000000  0.43750000  1
  Mn  Mn740  1  0.37500000  0.50000000  0.56250000  1
  Mn  Mn741  1  0.37500000  0.50000000  0.68750000  1
  Mn  Mn742  1  0.37500000  0.50000000  0.81250000  1
  Mn  Mn743  1  0.37500000  0.50000000  0.93750000  1
  Mn  Mn744  1  0.37500000  0.62500000  0.06250000  1
  Mn  Mn745  1  0.37500000  0.62500000  0.18750000  1
  Mn  Mn746  1  0.37500000  0.62500000  0.31250000  1
  Mn  Mn747  1  0.37500000  0.62500000  0.43750000  1
  Mn  Mn748  1  0.37500000  0.62500000  0.56250000  1
  Mn  Mn749  1  0.37500000  0.62500000  0.68750000  1
  Ni  Ni750  1  0.37500000  0.62500000  0.81250000  1
  Ni  Ni751  1  0.37500000  0.62500000  0.93750000  1
  Ni  Ni752  1  0.37500000  0.75000000  0.06250000  1
  Ni  Ni753  1  0.37500000  0.75000000  0.18750000  1
  Mn  Mn754  1  0.37500000  0.75000000  0.31250000  1
  Mn  Mn755  1  0.37500000  0.75000000  0.43750000  1
  Mn  Mn756  1  0.37500000  0.75000000  0.56250000  1
  Ni  Ni757  1  0.37500000  0.75000000  0.68750000  1
  Mn  Mn758  1  0.37500000  0.75000000  0.81250000  1
  Ni  Ni759  1  0.37500000  0.75000000  0.93750000  1
  Ni  Ni760  1  0.37500000  0.87500000  0.06250000  1
  Ni  Ni761  1  0.37500000  0.87500000  0.18750000  1
  Ni  Ni762  1  0.37500000  0.87500000  0.31250000  1
  Ni  Ni763  1  0.37500000  0.87500000  0.43750000  1
  Mn  Mn764  1  0.37500000  0.87500000  0.56250000  1
  Mn  Mn765  1  0.37500000  0.87500000  0.68750000  1
  Ni  Ni766  1  0.37500000  0.87500000  0.81250000  1
  Ni  Ni767  1  0.37500000  0.87500000  0.93750000  1
  Ni  Ni768  1  0.50000000  0.00000000  0.06250000  1
  Mn  Mn769  1  0.50000000  0.00000000  0.18750000  1
  Mn  Mn770  1  0.50000000  0.00000000  0.31250000  1
  Ni  Ni771  1  0.50000000  0.00000000  0.43750000  1
  Mn  Mn772  1  0.50000000  0.00000000  0.56250000  1
  Ni  Ni773  1  0.50000000  0.00000000  0.68750000  1
  Mn  Mn774  1  0.50000000  0.00000000  0.81250000  1
  Mn  Mn775  1  0.50000000  0.00000000  0.93750000  1
  Ni  Ni776  1  0.50000000  0.12500000  0.06250000  1
  Ni  Ni777  1  0.50000000  0.12500000  0.18750000  1
  Ni  Ni778  1  0.50000000  0.12500000  0.31250000  1
  Mn  Mn779  1  0.50000000  0.12500000  0.43750000  1
  Mn  Mn780  1  0.50000000  0.12500000  0.56250000  1
  Mn  Mn781  1  0.50000000  0.12500000  0.68750000  1
  Mn  Mn782  1  0.50000000  0.12500000  0.81250000  1
  Mn  Mn783  1  0.50000000  0.12500000  0.93750000  1
  Mn  Mn784  1  0.50000000  0.25000000  0.06250000  1
  Mn  Mn785  1  0.50000000  0.25000000  0.18750000  1
  Mn  Mn786  1  0.50000000  0.25000000  0.31250000  1
  Mn  Mn787  1  0.50000000  0.25000000  0.43750000  1
  Mn  Mn788  1  0.50000000  0.25000000  0.56250000  1
  Ni  Ni789  1  0.50000000  0.25000000  0.68750000  1
  Mn  Mn790  1  0.50000000  0.25000000  0.81250000  1
  Mn  Mn791  1  0.50000000  0.25000000  0.93750000  1
  Ni  Ni792  1  0.50000000  0.37500000  0.06250000  1
  Ni  Ni793  1  0.50000000  0.37500000  0.18750000  1
  Mn  Mn794  1  0.50000000  0.37500000  0.31250000  1
  Ni  Ni795  1  0.50000000  0.37500000  0.43750000  1
  Ni  Ni796  1  0.50000000  0.37500000  0.56250000  1
  Mn  Mn797  1  0.50000000  0.37500000  0.68750000  1
  Ni  Ni798  1  0.50000000  0.37500000  0.81250000  1
  Ni  Ni799  1  0.50000000  0.37500000  0.93750000  1
  Ni  Ni800  1  0.50000000  0.50000000  0.06250000  1
  Mn  Mn801  1  0.50000000  0.50000000  0.18750000  1
  Mn  Mn802  1  0.50000000  0.50000000  0.31250000  1
  Mn  Mn803  1  0.50000000  0.50000000  0.43750000  1
  Mn  Mn804  1  0.50000000  0.50000000  0.56250000  1
  Mn  Mn805  1  0.50000000  0.50000000  0.68750000  1
  Mn  Mn806  1  0.50000000  0.50000000  0.81250000  1
  Ni  Ni807  1  0.50000000  0.50000000  0.93750000  1
  Ni  Ni808  1  0.50000000  0.62500000  0.06250000  1
  Mn  Mn809  1  0.50000000  0.62500000  0.18750000  1
  Mn  Mn810  1  0.50000000  0.62500000  0.31250000  1
  Ni  Ni811  1  0.50000000  0.62500000  0.43750000  1
  Ni  Ni812  1  0.50000000  0.62500000  0.56250000  1
  Mn  Mn813  1  0.50000000  0.62500000  0.68750000  1
  Ni  Ni814  1  0.50000000  0.62500000  0.81250000  1
  Mn  Mn815  1  0.50000000  0.62500000  0.93750000  1
  Mn  Mn816  1  0.50000000  0.75000000  0.06250000  1
  Mn  Mn817  1  0.50000000  0.75000000  0.18750000  1
  Mn  Mn818  1  0.50000000  0.75000000  0.31250000  1
  Mn  Mn819  1  0.50000000  0.75000000  0.43750000  1
  Mn  Mn820  1  0.50000000  0.75000000  0.56250000  1
  Mn  Mn821  1  0.50000000  0.75000000  0.68750000  1
  Ni  Ni822  1  0.50000000  0.75000000  0.81250000  1
  Ni  Ni823  1  0.50000000  0.75000000  0.93750000  1
  Mn  Mn824  1  0.50000000  0.87500000  0.06250000  1
  Ni  Ni825  1  0.50000000  0.87500000  0.18750000  1
  Mn  Mn826  1  0.50000000  0.87500000  0.31250000  1
  Ni  Ni827  1  0.50000000  0.87500000  0.43750000  1
  Mn  Mn828  1  0.50000000  0.87500000  0.56250000  1
  Mn  Mn829  1  0.50000000  0.87500000  0.68750000  1
  Ni  Ni830  1  0.50000000  0.87500000  0.81250000  1
  Mn  Mn831  1  0.50000000  0.87500000  0.93750000  1
  Mn  Mn832  1  0.62500000  0.00000000  0.06250000  1
  Mn  Mn833  1  0.62500000  0.00000000  0.18750000  1
  Mn  Mn834  1  0.62500000  0.00000000  0.31250000  1
  Mn  Mn835  1  0.62500000  0.00000000  0.43750000  1
  Mn  Mn836  1  0.62500000  0.00000000  0.56250000  1
  Mn  Mn837  1  0.62500000  0.00000000  0.68750000  1
  Mn  Mn838  1  0.62500000  0.00000000  0.81250000  1
  Mn  Mn839  1  0.62500000  0.00000000  0.93750000  1
  Mn  Mn840  1  0.62500000  0.12500000  0.06250000  1
  Ni  Ni841  1  0.62500000  0.12500000  0.18750000  1
  Mn  Mn842  1  0.62500000  0.12500000  0.31250000  1
  Ni  Ni843  1  0.62500000  0.12500000  0.43750000  1
  Mn  Mn844  1  0.62500000  0.12500000  0.56250000  1
  Ni  Ni845  1  0.62500000  0.12500000  0.68750000  1
  Mn  Mn846  1  0.62500000  0.12500000  0.81250000  1
  Mn  Mn847  1  0.62500000  0.12500000  0.93750000  1
  Mn  Mn848  1  0.62500000  0.25000000  0.06250000  1
  Mn  Mn849  1  0.62500000  0.25000000  0.18750000  1
  Ni  Ni850  1  0.62500000  0.25000000  0.31250000  1
  Ni  Ni851  1  0.62500000  0.25000000  0.43750000  1
  Ni  Ni852  1  0.62500000  0.25000000  0.56250000  1
  Ni  Ni853  1  0.62500000  0.25000000  0.68750000  1
  Ni  Ni854  1  0.62500000  0.25000000  0.81250000  1
  Mn  Mn855  1  0.62500000  0.25000000  0.93750000  1
  Ni  Ni856  1  0.62500000  0.37500000  0.06250000  1
  Mn  Mn857  1  0.62500000  0.37500000  0.18750000  1
  Mn  Mn858  1  0.62500000  0.37500000  0.31250000  1
  Ni  Ni859  1  0.62500000  0.37500000  0.43750000  1
  Mn  Mn860  1  0.62500000  0.37500000  0.56250000  1
  Mn  Mn861  1  0.62500000  0.37500000  0.68750000  1
  Ni  Ni862  1  0.62500000  0.37500000  0.81250000  1
  Mn  Mn863  1  0.62500000  0.37500000  0.93750000  1
  Ni  Ni864  1  0.62500000  0.50000000  0.06250000  1
  Mn  Mn865  1  0.62500000  0.50000000  0.18750000  1
  Mn  Mn866  1  0.62500000  0.50000000  0.31250000  1
  Mn  Mn867  1  0.62500000  0.50000000  0.43750000  1
  Mn  Mn868  1  0.62500000  0.50000000  0.56250000  1
  Mn  Mn869  1  0.62500000  0.50000000  0.68750000  1
  Mn  Mn870  1  0.62500000  0.50000000  0.81250000  1
  Ni  Ni871  1  0.62500000  0.50000000  0.93750000  1
  Mn  Mn872  1  0.62500000  0.62500000  0.06250000  1
  Ni  Ni873  1  0.62500000  0.62500000  0.18750000  1
  Mn  Mn874  1  0.62500000  0.62500000  0.31250000  1
  Mn  Mn875  1  0.62500000  0.62500000  0.43750000  1
  Ni  Ni876  1  0.62500000  0.62500000  0.56250000  1
  Ni  Ni877  1  0.62500000  0.62500000  0.68750000  1
  Mn  Mn878  1  0.62500000  0.62500000  0.81250000  1
  Mn  Mn879  1  0.62500000  0.62500000  0.93750000  1
  Ni  Ni880  1  0.62500000  0.75000000  0.06250000  1
  Ni  Ni881  1  0.62500000  0.75000000  0.18750000  1
  Ni  Ni882  1  0.62500000  0.75000000  0.31250000  1
  Mn  Mn883  1  0.62500000  0.75000000  0.43750000  1
  Mn  Mn884  1  0.62500000  0.75000000  0.56250000  1
  Ni  Ni885  1  0.62500000  0.75000000  0.68750000  1
  Mn  Mn886  1  0.62500000  0.75000000  0.81250000  1
  Ni  Ni887  1  0.62500000  0.75000000  0.93750000  1
  Mn  Mn888  1  0.62500000  0.87500000  0.06250000  1
  Ni  Ni889  1  0.62500000  0.87500000  0.18750000  1
  Mn  Mn890  1  0.62500000  0.87500000  0.31250000  1
  Ni  Ni891  1  0.62500000  0.87500000  0.43750000  1
  Mn  Mn892  1  0.62500000  0.87500000  0.56250000  1
  Mn  Mn893  1  0.62500000  0.87500000  0.68750000  1
  Mn  Mn894  1  0.62500000  0.87500000  0.81250000  1
  Ni  Ni895  1  0.62500000  0.87500000  0.93750000  1
  Ni  Ni896  1  0.75000000  0.00000000  0.06250000  1
  Mn  Mn897  1  0.75000000  0.00000000  0.18750000  1
  Ni  Ni898  1  0.75000000  0.00000000  0.31250000  1
  Mn  Mn899  1  0.75000000  0.00000000  0.43750000  1
  Mn  Mn900  1  0.75000000  0.00000000  0.56250000  1
  Ni  Ni901  1  0.75000000  0.00000000  0.68750000  1
  Mn  Mn902  1  0.75000000  0.00000000  0.81250000  1
  Ni  Ni903  1  0.75000000  0.00000000  0.93750000  1
  Ni  Ni904  1  0.75000000  0.12500000  0.06250000  1
  Ni  Ni905  1  0.75000000  0.12500000  0.18750000  1
  Mn  Mn906  1  0.75000000  0.12500000  0.31250000  1
  Ni  Ni907  1  0.75000000  0.12500000  0.43750000  1
  Mn  Mn908  1  0.75000000  0.12500000  0.56250000  1
  Mn  Mn909  1  0.75000000  0.12500000  0.68750000  1
  Mn  Mn910  1  0.75000000  0.12500000  0.81250000  1
  Ni  Ni911  1  0.75000000  0.12500000  0.93750000  1
  Mn  Mn912  1  0.75000000  0.25000000  0.06250000  1
  Mn  Mn913  1  0.75000000  0.25000000  0.18750000  1
  Mn  Mn914  1  0.75000000  0.25000000  0.31250000  1
  Mn  Mn915  1  0.75000000  0.25000000  0.43750000  1
  Mn  Mn916  1  0.75000000  0.25000000  0.56250000  1
  Ni  Ni917  1  0.75000000  0.25000000  0.68750000  1
  Ni  Ni918  1  0.75000000  0.25000000  0.81250000  1
  Ni  Ni919  1  0.75000000  0.25000000  0.93750000  1
  Ni  Ni920  1  0.75000000  0.37500000  0.06250000  1
  Mn  Mn921  1  0.75000000  0.37500000  0.18750000  1
  Mn  Mn922  1  0.75000000  0.37500000  0.31250000  1
  Mn  Mn923  1  0.75000000  0.37500000  0.43750000  1
  Mn  Mn924  1  0.75000000  0.37500000  0.56250000  1
  Ni  Ni925  1  0.75000000  0.37500000  0.68750000  1
  Ni  Ni926  1  0.75000000  0.37500000  0.81250000  1
  Mn  Mn927  1  0.75000000  0.37500000  0.93750000  1
  Ni  Ni928  1  0.75000000  0.50000000  0.06250000  1
  Mn  Mn929  1  0.75000000  0.50000000  0.18750000  1
  Mn  Mn930  1  0.75000000  0.50000000  0.31250000  1
  Mn  Mn931  1  0.75000000  0.50000000  0.43750000  1
  Mn  Mn932  1  0.75000000  0.50000000  0.56250000  1
  Ni  Ni933  1  0.75000000  0.50000000  0.68750000  1
  Ni  Ni934  1  0.75000000  0.50000000  0.81250000  1
  Mn  Mn935  1  0.75000000  0.50000000  0.93750000  1
  Mn  Mn936  1  0.75000000  0.62500000  0.06250000  1
  Ni  Ni937  1  0.75000000  0.62500000  0.18750000  1
  Mn  Mn938  1  0.75000000  0.62500000  0.31250000  1
  Mn  Mn939  1  0.75000000  0.62500000  0.43750000  1
  Ni  Ni940  1  0.75000000  0.62500000  0.56250000  1
  Mn  Mn941  1  0.75000000  0.62500000  0.68750000  1
  Mn  Mn942  1  0.75000000  0.62500000  0.81250000  1
  Mn  Mn943  1  0.75000000  0.62500000  0.93750000  1
  Ni  Ni944  1  0.75000000  0.75000000  0.06250000  1
  Ni  Ni945  1  0.75000000  0.75000000  0.18750000  1
  Mn  Mn946  1  0.75000000  0.75000000  0.31250000  1
  Mn  Mn947  1  0.75000000  0.75000000  0.43750000  1
  Mn  Mn948  1  0.75000000  0.75000000  0.56250000  1
  Mn  Mn949  1  0.75000000  0.75000000  0.68750000  1
  Ni  Ni950  1  0.75000000  0.75000000  0.81250000  1
  Mn  Mn951  1  0.75000000  0.75000000  0.93750000  1
  Mn  Mn952  1  0.75000000  0.87500000  0.06250000  1
  Ni  Ni953  1  0.75000000  0.87500000  0.18750000  1
  Mn  Mn954  1  0.75000000  0.87500000  0.31250000  1
  Ni  Ni955  1  0.75000000  0.87500000  0.43750000  1
  Ni  Ni956  1  0.75000000  0.87500000  0.56250000  1
  Ni  Ni957  1  0.75000000  0.87500000  0.68750000  1
  Mn  Mn958  1  0.75000000  0.87500000  0.81250000  1
  Ni  Ni959  1  0.75000000  0.87500000  0.93750000  1
  Ni  Ni960  1  0.87500000  0.00000000  0.06250000  1
  Mn  Mn961  1  0.87500000  0.00000000  0.18750000  1
  Ni  Ni962  1  0.87500000  0.00000000  0.31250000  1
  Mn  Mn963  1  0.87500000  0.00000000  0.43750000  1
  Ni  Ni964  1  0.87500000  0.00000000  0.56250000  1
  Ni  Ni965  1  0.87500000  0.00000000  0.68750000  1
  Ni  Ni966  1  0.87500000  0.00000000  0.81250000  1
  Mn  Mn967  1  0.87500000  0.00000000  0.93750000  1
  Ni  Ni968  1  0.87500000  0.12500000  0.06250000  1
  Ni  Ni969  1  0.87500000  0.12500000  0.18750000  1
  Ni  Ni970  1  0.87500000  0.12500000  0.31250000  1
  Mn  Mn971  1  0.87500000  0.12500000  0.43750000  1
  Ni  Ni972  1  0.87500000  0.12500000  0.56250000  1
  Mn  Mn973  1  0.87500000  0.12500000  0.68750000  1
  Ni  Ni974  1  0.87500000  0.12500000  0.81250000  1
  Mn  Mn975  1  0.87500000  0.12500000  0.93750000  1
  Mn  Mn976  1  0.87500000  0.25000000  0.06250000  1
  Ni  Ni977  1  0.87500000  0.25000000  0.18750000  1
  Ni  Ni978  1  0.87500000  0.25000000  0.31250000  1
  Ni  Ni979  1  0.87500000  0.25000000  0.43750000  1
  Mn  Mn980  1  0.87500000  0.25000000  0.56250000  1
  Mn  Mn981  1  0.87500000  0.25000000  0.68750000  1
  Mn  Mn982  1  0.87500000  0.25000000  0.81250000  1
  Ni  Ni983  1  0.87500000  0.25000000  0.93750000  1
  Mn  Mn984  1  0.87500000  0.37500000  0.06250000  1
  Ni  Ni985  1  0.87500000  0.37500000  0.18750000  1
  Ni  Ni986  1  0.87500000  0.37500000  0.31250000  1
  Ni  Ni987  1  0.87500000  0.37500000  0.43750000  1
  Ni  Ni988  1  0.87500000  0.37500000  0.56250000  1
  Mn  Mn989  1  0.87500000  0.37500000  0.68750000  1
  Ni  Ni990  1  0.87500000  0.37500000  0.81250000  1
  Ni  Ni991  1  0.87500000  0.37500000  0.93750000  1
  Mn  Mn992  1  0.87500000  0.50000000  0.06250000  1
  Ni  Ni993  1  0.87500000  0.50000000  0.18750000  1
  Mn  Mn994  1  0.87500000  0.50000000  0.31250000  1
  Ni  Ni995  1  0.87500000  0.50000000  0.43750000  1
  Ni  Ni996  1  0.87500000  0.50000000  0.56250000  1
  Mn  Mn997  1  0.87500000  0.50000000  0.68750000  1
  Mn  Mn998  1  0.87500000  0.50000000  0.81250000  1
  Mn  Mn999  1  0.87500000  0.50000000  0.93750000  1
  Ni  Ni1000  1  0.87500000  0.62500000  0.06250000  1
  Mn  Mn1001  1  0.87500000  0.62500000  0.18750000  1
  Ni  Ni1002  1  0.87500000  0.62500000  0.31250000  1
  Ni  Ni1003  1  0.87500000  0.62500000  0.43750000  1
  Ni  Ni1004  1  0.87500000  0.62500000  0.56250000  1
  Ni  Ni1005  1  0.87500000  0.62500000  0.68750000  1
  Mn  Mn1006  1  0.87500000  0.62500000  0.81250000  1
  Mn  Mn1007  1  0.87500000  0.62500000  0.93750000  1
  Mn  Mn1008  1  0.87500000  0.75000000  0.06250000  1
  Mn  Mn1009  1  0.87500000  0.75000000  0.18750000  1
  Ni  Ni1010  1  0.87500000  0.75000000  0.31250000  1
  Mn  Mn1011  1  0.87500000  0.75000000  0.43750000  1
  Mn  Mn1012  1  0.87500000  0.75000000  0.56250000  1
  Mn  Mn1013  1  0.87500000  0.75000000  0.68750000  1
  Ni  Ni1014  1  0.87500000  0.75000000  0.81250000  1
  Ni  Ni1015  1  0.87500000  0.75000000  0.93750000  1
  Mn  Mn1016  1  0.87500000  0.87500000  0.06250000  1
  Ni  Ni1017  1  0.87500000  0.87500000  0.18750000  1
  Ni  Ni1018  1  0.87500000  0.87500000  0.31250000  1
  Mn  Mn1019  1  0.87500000  0.87500000  0.43750000  1
  Ni  Ni1020  1  0.87500000  0.87500000  0.56250000  1
  Ni  Ni1021  1  0.87500000  0.87500000  0.68750000  1
  Mn  Mn1022  1  0.87500000  0.87500000  0.81250000  1
  Mn  Mn1023  1  0.87500000  0.87500000  0.93750000  1
  As  As1024  1  0.04166667  0.08333333  0.03125000  1
  As  As1025  1  0.04166667  0.08333333  0.15625000  1
  As  As1026  1  0.04166667  0.08333333  0.28125000  1
  As  As1027  1  0.04166667  0.08333333  0.40625000  1
  As  As1028  1  0.04166667  0.08333333  0.53125000  1
  As  As1029  1  0.04166667  0.08333333  0.65625000  1
  As  As1030  1  0.04166667  0.08333333  0.78125000  1
  As  As1031  1  0.04166667  0.08333333  0.90625000  1
  As  As1032  1  0.04166667  0.20833333  0.03125000  1
  As  As1033  1  0.04166667  0.20833333  0.15625000  1
  As  As1034  1  0.04166667  0.20833333  0.28125000  1
  As  As1035  1  0.04166667  0.20833333  0.40625000  1
  As  As1036  1  0.04166667  0.20833333  0.53125000  1
  As  As1037  1  0.04166667  0.20833333  0.65625000  1
  As  As1038  1  0.04166667  0.20833333  0.78125000  1
  As  As1039  1  0.04166667  0.20833333  0.90625000  1
  As  As1040  1  0.04166667  0.33333333  0.03125000  1
  As  As1041  1  0.04166667  0.33333333  0.15625000  1
  As  As1042  1  0.04166667  0.33333333  0.28125000  1
  As  As1043  1  0.04166667  0.33333333  0.40625000  1
  As  As1044  1  0.04166667  0.33333333  0.53125000  1
  As  As1045  1  0.04166667  0.33333333  0.65625000  1
  As  As1046  1  0.04166667  0.33333333  0.78125000  1
  As  As1047  1  0.04166667  0.33333333  0.90625000  1
  As  As1048  1  0.04166667  0.45833333  0.03125000  1
  As  As1049  1  0.04166667  0.45833333  0.15625000  1
  As  As1050  1  0.04166667  0.45833333  0.28125000  1
  As  As1051  1  0.04166667  0.45833333  0.40625000  1
  As  As1052  1  0.04166667  0.45833333  0.53125000  1
  As  As1053  1  0.04166667  0.45833333  0.65625000  1
  As  As1054  1  0.04166667  0.45833333  0.78125000  1
  As  As1055  1  0.04166667  0.45833333  0.90625000  1
  As  As1056  1  0.04166667  0.58333333  0.03125000  1
  As  As1057  1  0.04166667  0.58333333  0.15625000  1
  As  As1058  1  0.04166667  0.58333333  0.28125000  1
  As  As1059  1  0.04166667  0.58333333  0.40625000  1
  As  As1060  1  0.04166667  0.58333333  0.53125000  1
  As  As1061  1  0.04166667  0.58333333  0.65625000  1
  As  As1062  1  0.04166667  0.58333333  0.78125000  1
  As  As1063  1  0.04166667  0.58333333  0.90625000  1
  As  As1064  1  0.04166667  0.70833333  0.03125000  1
  As  As1065  1  0.04166667  0.70833333  0.15625000  1
  As  As1066  1  0.04166667  0.70833333  0.28125000  1
  As  As1067  1  0.04166667  0.70833333  0.40625000  1
  As  As1068  1  0.04166667  0.70833333  0.53125000  1
  As  As1069  1  0.04166667  0.70833333  0.65625000  1
  As  As1070  1  0.04166667  0.70833333  0.78125000  1
  As  As1071  1  0.04166667  0.70833333  0.90625000  1
  As  As1072  1  0.04166667  0.83333333  0.03125000  1
  As  As1073  1  0.04166667  0.83333333  0.15625000  1
  As  As1074  1  0.04166667  0.83333333  0.28125000  1
  As  As1075  1  0.04166667  0.83333333  0.40625000  1
  As  As1076  1  0.04166667  0.83333333  0.53125000  1
  As  As1077  1  0.04166667  0.83333333  0.65625000  1
  As  As1078  1  0.04166667  0.83333333  0.78125000  1
  As  As1079  1  0.04166667  0.83333333  0.90625000  1
  As  As1080  1  0.04166667  0.95833333  0.03125000  1
  As  As1081  1  0.04166667  0.95833333  0.15625000  1
  As  As1082  1  0.04166667  0.95833333  0.28125000  1
  As  As1083  1  0.04166667  0.95833333  0.40625000  1
  As  As1084  1  0.04166667  0.95833333  0.53125000  1
  As  As1085  1  0.04166667  0.95833333  0.65625000  1
  As  As1086  1  0.04166667  0.95833333  0.78125000  1
  As  As1087  1  0.04166667  0.95833333  0.90625000  1
  As  As1088  1  0.16666667  0.08333333  0.03125000  1
  As  As1089  1  0.16666667  0.08333333  0.15625000  1
  As  As1090  1  0.16666667  0.08333333  0.28125000  1
  As  As1091  1  0.16666667  0.08333333  0.40625000  1
  As  As1092  1  0.16666667  0.08333333  0.53125000  1
  As  As1093  1  0.16666667  0.08333333  0.65625000  1
  As  As1094  1  0.16666667  0.08333333  0.78125000  1
  As  As1095  1  0.16666667  0.08333333  0.90625000  1
  As  As1096  1  0.16666667  0.20833333  0.03125000  1
  As  As1097  1  0.16666667  0.20833333  0.15625000  1
  As  As1098  1  0.16666667  0.20833333  0.28125000  1
  As  As1099  1  0.16666667  0.20833333  0.40625000  1
  As  As1100  1  0.16666667  0.20833333  0.53125000  1
  As  As1101  1  0.16666667  0.20833333  0.65625000  1
  As  As1102  1  0.16666667  0.20833333  0.78125000  1
  As  As1103  1  0.16666667  0.20833333  0.90625000  1
  As  As1104  1  0.16666667  0.33333333  0.03125000  1
  As  As1105  1  0.16666667  0.33333333  0.15625000  1
  As  As1106  1  0.16666667  0.33333333  0.28125000  1
  As  As1107  1  0.16666667  0.33333333  0.40625000  1
  As  As1108  1  0.16666667  0.33333333  0.53125000  1
  As  As1109  1  0.16666667  0.33333333  0.65625000  1
  As  As1110  1  0.16666667  0.33333333  0.78125000  1
  As  As1111  1  0.16666667  0.33333333  0.90625000  1
  As  As1112  1  0.16666667  0.45833333  0.03125000  1
  As  As1113  1  0.16666667  0.45833333  0.15625000  1
  As  As1114  1  0.16666667  0.45833333  0.28125000  1
  As  As1115  1  0.16666667  0.45833333  0.40625000  1
  As  As1116  1  0.16666667  0.45833333  0.53125000  1
  As  As1117  1  0.16666667  0.45833333  0.65625000  1
  As  As1118  1  0.16666667  0.45833333  0.78125000  1
  As  As1119  1  0.16666667  0.45833333  0.90625000  1
  As  As1120  1  0.16666667  0.58333333  0.03125000  1
  As  As1121  1  0.16666667  0.58333333  0.15625000  1
  As  As1122  1  0.16666667  0.58333333  0.28125000  1
  As  As1123  1  0.16666667  0.58333333  0.40625000  1
  As  As1124  1  0.16666667  0.58333333  0.53125000  1
  As  As1125  1  0.16666667  0.58333333  0.65625000  1
  As  As1126  1  0.16666667  0.58333333  0.78125000  1
  As  As1127  1  0.16666667  0.58333333  0.90625000  1
  As  As1128  1  0.16666667  0.70833333  0.03125000  1
  As  As1129  1  0.16666667  0.70833333  0.15625000  1
  As  As1130  1  0.16666667  0.70833333  0.28125000  1
  As  As1131  1  0.16666667  0.70833333  0.40625000  1
  As  As1132  1  0.16666667  0.70833333  0.53125000  1
  As  As1133  1  0.16666667  0.70833333  0.65625000  1
  As  As1134  1  0.16666667  0.70833333  0.78125000  1
  As  As1135  1  0.16666667  0.70833333  0.90625000  1
  As  As1136  1  0.16666667  0.83333333  0.03125000  1
  As  As1137  1  0.16666667  0.83333333  0.15625000  1
  As  As1138  1  0.16666667  0.83333333  0.28125000  1
  As  As1139  1  0.16666667  0.83333333  0.40625000  1
  As  As1140  1  0.16666667  0.83333333  0.53125000  1
  As  As1141  1  0.16666667  0.83333333  0.65625000  1
  As  As1142  1  0.16666667  0.83333333  0.78125000  1
  As  As1143  1  0.16666667  0.83333333  0.90625000  1
  As  As1144  1  0.16666667  0.95833333  0.03125000  1
  As  As1145  1  0.16666667  0.95833333  0.15625000  1
  As  As1146  1  0.16666667  0.95833333  0.28125000  1
  As  As1147  1  0.16666667  0.95833333  0.40625000  1
  As  As1148  1  0.16666667  0.95833333  0.53125000  1
  As  As1149  1  0.16666667  0.95833333  0.65625000  1
  As  As1150  1  0.16666667  0.95833333  0.78125000  1
  As  As1151  1  0.16666667  0.95833333  0.90625000  1
  As  As1152  1  0.29166667  0.08333333  0.03125000  1
  As  As1153  1  0.29166667  0.08333333  0.15625000  1
  As  As1154  1  0.29166667  0.08333333  0.28125000  1
  As  As1155  1  0.29166667  0.08333333  0.40625000  1
  As  As1156  1  0.29166667  0.08333333  0.53125000  1
  As  As1157  1  0.29166667  0.08333333  0.65625000  1
  As  As1158  1  0.29166667  0.08333333  0.78125000  1
  As  As1159  1  0.29166667  0.08333333  0.90625000  1
  As  As1160  1  0.29166667  0.20833333  0.03125000  1
  As  As1161  1  0.29166667  0.20833333  0.15625000  1
  As  As1162  1  0.29166667  0.20833333  0.28125000  1
  As  As1163  1  0.29166667  0.20833333  0.40625000  1
  As  As1164  1  0.29166667  0.20833333  0.53125000  1
  As  As1165  1  0.29166667  0.20833333  0.65625000  1
  As  As1166  1  0.29166667  0.20833333  0.78125000  1
  As  As1167  1  0.29166667  0.20833333  0.90625000  1
  As  As1168  1  0.29166667  0.33333333  0.03125000  1
  As  As1169  1  0.29166667  0.33333333  0.15625000  1
  As  As1170  1  0.29166667  0.33333333  0.28125000  1
  As  As1171  1  0.29166667  0.33333333  0.40625000  1
  As  As1172  1  0.29166667  0.33333333  0.53125000  1
  As  As1173  1  0.29166667  0.33333333  0.65625000  1
  As  As1174  1  0.29166667  0.33333333  0.78125000  1
  As  As1175  1  0.29166667  0.33333333  0.90625000  1
  As  As1176  1  0.29166667  0.45833333  0.03125000  1
  As  As1177  1  0.29166667  0.45833333  0.15625000  1
  As  As1178  1  0.29166667  0.45833333  0.28125000  1
  As  As1179  1  0.29166667  0.45833333  0.40625000  1
  As  As1180  1  0.29166667  0.45833333  0.53125000  1
  As  As1181  1  0.29166667  0.45833333  0.65625000  1
  As  As1182  1  0.29166667  0.45833333  0.78125000  1
  As  As1183  1  0.29166667  0.45833333  0.90625000  1
  As  As1184  1  0.29166667  0.58333333  0.03125000  1
  As  As1185  1  0.29166667  0.58333333  0.15625000  1
  As  As1186  1  0.29166667  0.58333333  0.28125000  1
  As  As1187  1  0.29166667  0.58333333  0.40625000  1
  As  As1188  1  0.29166667  0.58333333  0.53125000  1
  As  As1189  1  0.29166667  0.58333333  0.65625000  1
  As  As1190  1  0.29166667  0.58333333  0.78125000  1
  As  As1191  1  0.29166667  0.58333333  0.90625000  1
  As  As1192  1  0.29166667  0.70833333  0.03125000  1
  As  As1193  1  0.29166667  0.70833333  0.15625000  1
  As  As1194  1  0.29166667  0.70833333  0.28125000  1
  As  As1195  1  0.29166667  0.70833333  0.40625000  1
  As  As1196  1  0.29166667  0.70833333  0.53125000  1
  As  As1197  1  0.29166667  0.70833333  0.65625000  1
  As  As1198  1  0.29166667  0.70833333  0.78125000  1
  As  As1199  1  0.29166667  0.70833333  0.90625000  1
  As  As1200  1  0.29166667  0.83333333  0.03125000  1
  As  As1201  1  0.29166667  0.83333333  0.15625000  1
  As  As1202  1  0.29166667  0.83333333  0.28125000  1
  As  As1203  1  0.29166667  0.83333333  0.40625000  1
  As  As1204  1  0.29166667  0.83333333  0.53125000  1
  As  As1205  1  0.29166667  0.83333333  0.65625000  1
  As  As1206  1  0.29166667  0.83333333  0.78125000  1
  As  As1207  1  0.29166667  0.83333333  0.90625000  1
  As  As1208  1  0.29166667  0.95833333  0.03125000  1
  As  As1209  1  0.29166667  0.95833333  0.15625000  1
  As  As1210  1  0.29166667  0.95833333  0.28125000  1
  As  As1211  1  0.29166667  0.95833333  0.40625000  1
  As  As1212  1  0.29166667  0.95833333  0.53125000  1
  As  As1213  1  0.29166667  0.95833333  0.65625000  1
  As  As1214  1  0.29166667  0.95833333  0.78125000  1
  As  As1215  1  0.29166667  0.95833333  0.90625000  1
  As  As1216  1  0.41666667  0.08333333  0.03125000  1
  As  As1217  1  0.41666667  0.08333333  0.15625000  1
  As  As1218  1  0.41666667  0.08333333  0.28125000  1
  As  As1219  1  0.41666667  0.08333333  0.40625000  1
  As  As1220  1  0.41666667  0.08333333  0.53125000  1
  As  As1221  1  0.41666667  0.08333333  0.65625000  1
  As  As1222  1  0.41666667  0.08333333  0.78125000  1
  As  As1223  1  0.41666667  0.08333333  0.90625000  1
  As  As1224  1  0.41666667  0.20833333  0.03125000  1
  As  As1225  1  0.41666667  0.20833333  0.15625000  1
  As  As1226  1  0.41666667  0.20833333  0.28125000  1
  As  As1227  1  0.41666667  0.20833333  0.40625000  1
  As  As1228  1  0.41666667  0.20833333  0.53125000  1
  As  As1229  1  0.41666667  0.20833333  0.65625000  1
  As  As1230  1  0.41666667  0.20833333  0.78125000  1
  As  As1231  1  0.41666667  0.20833333  0.90625000  1
  As  As1232  1  0.41666667  0.33333333  0.03125000  1
  As  As1233  1  0.41666667  0.33333333  0.15625000  1
  As  As1234  1  0.41666667  0.33333333  0.28125000  1
  As  As1235  1  0.41666667  0.33333333  0.40625000  1
  As  As1236  1  0.41666667  0.33333333  0.53125000  1
  As  As1237  1  0.41666667  0.33333333  0.65625000  1
  As  As1238  1  0.41666667  0.33333333  0.78125000  1
  As  As1239  1  0.41666667  0.33333333  0.90625000  1
  As  As1240  1  0.41666667  0.45833333  0.03125000  1
  As  As1241  1  0.41666667  0.45833333  0.15625000  1
  As  As1242  1  0.41666667  0.45833333  0.28125000  1
  As  As1243  1  0.41666667  0.45833333  0.40625000  1
  As  As1244  1  0.41666667  0.45833333  0.53125000  1
  As  As1245  1  0.41666667  0.45833333  0.65625000  1
  As  As1246  1  0.41666667  0.45833333  0.78125000  1
  As  As1247  1  0.41666667  0.45833333  0.90625000  1
  As  As1248  1  0.41666667  0.58333333  0.03125000  1
  As  As1249  1  0.41666667  0.58333333  0.15625000  1
  As  As1250  1  0.41666667  0.58333333  0.28125000  1
  As  As1251  1  0.41666667  0.58333333  0.40625000  1
  As  As1252  1  0.41666667  0.58333333  0.53125000  1
  As  As1253  1  0.41666667  0.58333333  0.65625000  1
  As  As1254  1  0.41666667  0.58333333  0.78125000  1
  As  As1255  1  0.41666667  0.58333333  0.90625000  1
  As  As1256  1  0.41666667  0.70833333  0.03125000  1
  As  As1257  1  0.41666667  0.70833333  0.15625000  1
  As  As1258  1  0.41666667  0.70833333  0.28125000  1
  As  As1259  1  0.41666667  0.70833333  0.40625000  1
  As  As1260  1  0.41666667  0.70833333  0.53125000  1
  As  As1261  1  0.41666667  0.70833333  0.65625000  1
  As  As1262  1  0.41666667  0.70833333  0.78125000  1
  As  As1263  1  0.41666667  0.70833333  0.90625000  1
  As  As1264  1  0.41666667  0.83333333  0.03125000  1
  As  As1265  1  0.41666667  0.83333333  0.15625000  1
  As  As1266  1  0.41666667  0.83333333  0.28125000  1
  As  As1267  1  0.41666667  0.83333333  0.40625000  1
  As  As1268  1  0.41666667  0.83333333  0.53125000  1
  As  As1269  1  0.41666667  0.83333333  0.65625000  1
  As  As1270  1  0.41666667  0.83333333  0.78125000  1
  As  As1271  1  0.41666667  0.83333333  0.90625000  1
  As  As1272  1  0.41666667  0.95833333  0.03125000  1
  As  As1273  1  0.41666667  0.95833333  0.15625000  1
  As  As1274  1  0.41666667  0.95833333  0.28125000  1
  As  As1275  1  0.41666667  0.95833333  0.40625000  1
  As  As1276  1  0.41666667  0.95833333  0.53125000  1
  As  As1277  1  0.41666667  0.95833333  0.65625000  1
  As  As1278  1  0.41666667  0.95833333  0.78125000  1
  As  As1279  1  0.41666667  0.95833333  0.90625000  1
  As  As1280  1  0.54166667  0.08333333  0.03125000  1
  As  As1281  1  0.54166667  0.08333333  0.15625000  1
  As  As1282  1  0.54166667  0.08333333  0.28125000  1
  As  As1283  1  0.54166667  0.08333333  0.40625000  1
  As  As1284  1  0.54166667  0.08333333  0.53125000  1
  As  As1285  1  0.54166667  0.08333333  0.65625000  1
  As  As1286  1  0.54166667  0.08333333  0.78125000  1
  As  As1287  1  0.54166667  0.08333333  0.90625000  1
  As  As1288  1  0.54166667  0.20833333  0.03125000  1
  As  As1289  1  0.54166667  0.20833333  0.15625000  1
  As  As1290  1  0.54166667  0.20833333  0.28125000  1
  As  As1291  1  0.54166667  0.20833333  0.40625000  1
  As  As1292  1  0.54166667  0.20833333  0.53125000  1
  As  As1293  1  0.54166667  0.20833333  0.65625000  1
  As  As1294  1  0.54166667  0.20833333  0.78125000  1
  As  As1295  1  0.54166667  0.20833333  0.90625000  1
  As  As1296  1  0.54166667  0.33333333  0.03125000  1
  As  As1297  1  0.54166667  0.33333333  0.15625000  1
  As  As1298  1  0.54166667  0.33333333  0.28125000  1
  As  As1299  1  0.54166667  0.33333333  0.40625000  1
  As  As1300  1  0.54166667  0.33333333  0.53125000  1
  As  As1301  1  0.54166667  0.33333333  0.65625000  1
  As  As1302  1  0.54166667  0.33333333  0.78125000  1
  As  As1303  1  0.54166667  0.33333333  0.90625000  1
  As  As1304  1  0.54166667  0.45833333  0.03125000  1
  As  As1305  1  0.54166667  0.45833333  0.15625000  1
  As  As1306  1  0.54166667  0.45833333  0.28125000  1
  As  As1307  1  0.54166667  0.45833333  0.40625000  1
  As  As1308  1  0.54166667  0.45833333  0.53125000  1
  As  As1309  1  0.54166667  0.45833333  0.65625000  1
  As  As1310  1  0.54166667  0.45833333  0.78125000  1
  As  As1311  1  0.54166667  0.45833333  0.90625000  1
  As  As1312  1  0.54166667  0.58333333  0.03125000  1
  As  As1313  1  0.54166667  0.58333333  0.15625000  1
  As  As1314  1  0.54166667  0.58333333  0.28125000  1
  As  As1315  1  0.54166667  0.58333333  0.40625000  1
  As  As1316  1  0.54166667  0.58333333  0.53125000  1
  As  As1317  1  0.54166667  0.58333333  0.65625000  1
  As  As1318  1  0.54166667  0.58333333  0.78125000  1
  As  As1319  1  0.54166667  0.58333333  0.90625000  1
  As  As1320  1  0.54166667  0.70833333  0.03125000  1
  As  As1321  1  0.54166667  0.70833333  0.15625000  1
  As  As1322  1  0.54166667  0.70833333  0.28125000  1
  As  As1323  1  0.54166667  0.70833333  0.40625000  1
  As  As1324  1  0.54166667  0.70833333  0.53125000  1
  As  As1325  1  0.54166667  0.70833333  0.65625000  1
  As  As1326  1  0.54166667  0.70833333  0.78125000  1
  As  As1327  1  0.54166667  0.70833333  0.90625000  1
  As  As1328  1  0.54166667  0.83333333  0.03125000  1
  As  As1329  1  0.54166667  0.83333333  0.15625000  1
  As  As1330  1  0.54166667  0.83333333  0.28125000  1
  As  As1331  1  0.54166667  0.83333333  0.40625000  1
  As  As1332  1  0.54166667  0.83333333  0.53125000  1
  As  As1333  1  0.54166667  0.83333333  0.65625000  1
  As  As1334  1  0.54166667  0.83333333  0.78125000  1
  As  As1335  1  0.54166667  0.83333333  0.90625000  1
  As  As1336  1  0.54166667  0.95833333  0.03125000  1
  As  As1337  1  0.54166667  0.95833333  0.15625000  1
  As  As1338  1  0.54166667  0.95833333  0.28125000  1
  As  As1339  1  0.54166667  0.95833333  0.40625000  1
  As  As1340  1  0.54166667  0.95833333  0.53125000  1
  As  As1341  1  0.54166667  0.95833333  0.65625000  1
  As  As1342  1  0.54166667  0.95833333  0.78125000  1
  As  As1343  1  0.54166667  0.95833333  0.90625000  1
  As  As1344  1  0.66666667  0.08333333  0.03125000  1
  As  As1345  1  0.66666667  0.08333333  0.15625000  1
  As  As1346  1  0.66666667  0.08333333  0.28125000  1
  As  As1347  1  0.66666667  0.08333333  0.40625000  1
  As  As1348  1  0.66666667  0.08333333  0.53125000  1
  As  As1349  1  0.66666667  0.08333333  0.65625000  1
  As  As1350  1  0.66666667  0.08333333  0.78125000  1
  As  As1351  1  0.66666667  0.08333333  0.90625000  1
  As  As1352  1  0.66666667  0.20833333  0.03125000  1
  As  As1353  1  0.66666667  0.20833333  0.15625000  1
  As  As1354  1  0.66666667  0.20833333  0.28125000  1
  As  As1355  1  0.66666667  0.20833333  0.40625000  1
  As  As1356  1  0.66666667  0.20833333  0.53125000  1
  As  As1357  1  0.66666667  0.20833333  0.65625000  1
  As  As1358  1  0.66666667  0.20833333  0.78125000  1
  As  As1359  1  0.66666667  0.20833333  0.90625000  1
  As  As1360  1  0.66666667  0.33333333  0.03125000  1
  As  As1361  1  0.66666667  0.33333333  0.15625000  1
  As  As1362  1  0.66666667  0.33333333  0.28125000  1
  As  As1363  1  0.66666667  0.33333333  0.40625000  1
  As  As1364  1  0.66666667  0.33333333  0.53125000  1
  As  As1365  1  0.66666667  0.33333333  0.65625000  1
  As  As1366  1  0.66666667  0.33333333  0.78125000  1
  As  As1367  1  0.66666667  0.33333333  0.90625000  1
  As  As1368  1  0.66666667  0.45833333  0.03125000  1
  As  As1369  1  0.66666667  0.45833333  0.15625000  1
  As  As1370  1  0.66666667  0.45833333  0.28125000  1
  As  As1371  1  0.66666667  0.45833333  0.40625000  1
  As  As1372  1  0.66666667  0.45833333  0.53125000  1
  As  As1373  1  0.66666667  0.45833333  0.65625000  1
  As  As1374  1  0.66666667  0.45833333  0.78125000  1
  As  As1375  1  0.66666667  0.45833333  0.90625000  1
  As  As1376  1  0.66666667  0.58333333  0.03125000  1
  As  As1377  1  0.66666667  0.58333333  0.15625000  1
  As  As1378  1  0.66666667  0.58333333  0.28125000  1
  As  As1379  1  0.66666667  0.58333333  0.40625000  1
  As  As1380  1  0.66666667  0.58333333  0.53125000  1
  As  As1381  1  0.66666667  0.58333333  0.65625000  1
  As  As1382  1  0.66666667  0.58333333  0.78125000  1
  As  As1383  1  0.66666667  0.58333333  0.90625000  1
  As  As1384  1  0.66666667  0.70833333  0.03125000  1
  As  As1385  1  0.66666667  0.70833333  0.15625000  1
  As  As1386  1  0.66666667  0.70833333  0.28125000  1
  As  As1387  1  0.66666667  0.70833333  0.40625000  1
  As  As1388  1  0.66666667  0.70833333  0.53125000  1
  As  As1389  1  0.66666667  0.70833333  0.65625000  1
  As  As1390  1  0.66666667  0.70833333  0.78125000  1
  As  As1391  1  0.66666667  0.70833333  0.90625000  1
  As  As1392  1  0.66666667  0.83333333  0.03125000  1
  As  As1393  1  0.66666667  0.83333333  0.15625000  1
  As  As1394  1  0.66666667  0.83333333  0.28125000  1
  As  As1395  1  0.66666667  0.83333333  0.40625000  1
  As  As1396  1  0.66666667  0.83333333  0.53125000  1
  As  As1397  1  0.66666667  0.83333333  0.65625000  1
  As  As1398  1  0.66666667  0.83333333  0.78125000  1
  As  As1399  1  0.66666667  0.83333333  0.90625000  1
  As  As1400  1  0.66666667  0.95833333  0.03125000  1
  As  As1401  1  0.66666667  0.95833333  0.15625000  1
  As  As1402  1  0.66666667  0.95833333  0.28125000  1
  As  As1403  1  0.66666667  0.95833333  0.40625000  1
  As  As1404  1  0.66666667  0.95833333  0.53125000  1
  As  As1405  1  0.66666667  0.95833333  0.65625000  1
  As  As1406  1  0.66666667  0.95833333  0.78125000  1
  As  As1407  1  0.66666667  0.95833333  0.90625000  1
  As  As1408  1  0.79166667  0.08333333  0.03125000  1
  As  As1409  1  0.79166667  0.08333333  0.15625000  1
  As  As1410  1  0.79166667  0.08333333  0.28125000  1
  As  As1411  1  0.79166667  0.08333333  0.40625000  1
  As  As1412  1  0.79166667  0.08333333  0.53125000  1
  As  As1413  1  0.79166667  0.08333333  0.65625000  1
  As  As1414  1  0.79166667  0.08333333  0.78125000  1
  As  As1415  1  0.79166667  0.08333333  0.90625000  1
  As  As1416  1  0.79166667  0.20833333  0.03125000  1
  As  As1417  1  0.79166667  0.20833333  0.15625000  1
  As  As1418  1  0.79166667  0.20833333  0.28125000  1
  As  As1419  1  0.79166667  0.20833333  0.40625000  1
  As  As1420  1  0.79166667  0.20833333  0.53125000  1
  As  As1421  1  0.79166667  0.20833333  0.65625000  1
  As  As1422  1  0.79166667  0.20833333  0.78125000  1
  As  As1423  1  0.79166667  0.20833333  0.90625000  1
  As  As1424  1  0.79166667  0.33333333  0.03125000  1
  As  As1425  1  0.79166667  0.33333333  0.15625000  1
  As  As1426  1  0.79166667  0.33333333  0.28125000  1
  As  As1427  1  0.79166667  0.33333333  0.40625000  1
  As  As1428  1  0.79166667  0.33333333  0.53125000  1
  As  As1429  1  0.79166667  0.33333333  0.65625000  1
  As  As1430  1  0.79166667  0.33333333  0.78125000  1
  As  As1431  1  0.79166667  0.33333333  0.90625000  1
  As  As1432  1  0.79166667  0.45833333  0.03125000  1
  As  As1433  1  0.79166667  0.45833333  0.15625000  1
  As  As1434  1  0.79166667  0.45833333  0.28125000  1
  As  As1435  1  0.79166667  0.45833333  0.40625000  1
  As  As1436  1  0.79166667  0.45833333  0.53125000  1
  As  As1437  1  0.79166667  0.45833333  0.65625000  1
  As  As1438  1  0.79166667  0.45833333  0.78125000  1
  As  As1439  1  0.79166667  0.45833333  0.90625000  1
  As  As1440  1  0.79166667  0.58333333  0.03125000  1
  As  As1441  1  0.79166667  0.58333333  0.15625000  1
  As  As1442  1  0.79166667  0.58333333  0.28125000  1
  As  As1443  1  0.79166667  0.58333333  0.40625000  1
  As  As1444  1  0.79166667  0.58333333  0.53125000  1
  As  As1445  1  0.79166667  0.58333333  0.65625000  1
  As  As1446  1  0.79166667  0.58333333  0.78125000  1
  As  As1447  1  0.79166667  0.58333333  0.90625000  1
  As  As1448  1  0.79166667  0.70833333  0.03125000  1
  As  As1449  1  0.79166667  0.70833333  0.15625000  1
  As  As1450  1  0.79166667  0.70833333  0.28125000  1
  As  As1451  1  0.79166667  0.70833333  0.40625000  1
  As  As1452  1  0.79166667  0.70833333  0.53125000  1
  As  As1453  1  0.79166667  0.70833333  0.65625000  1
  As  As1454  1  0.79166667  0.70833333  0.78125000  1
  As  As1455  1  0.79166667  0.70833333  0.90625000  1
  As  As1456  1  0.79166667  0.83333333  0.03125000  1
  As  As1457  1  0.79166667  0.83333333  0.15625000  1
  As  As1458  1  0.79166667  0.83333333  0.28125000  1
  As  As1459  1  0.79166667  0.83333333  0.40625000  1
  As  As1460  1  0.79166667  0.83333333  0.53125000  1
  As  As1461  1  0.79166667  0.83333333  0.65625000  1
  As  As1462  1  0.79166667  0.83333333  0.78125000  1
  As  As1463  1  0.79166667  0.83333333  0.90625000  1
  As  As1464  1  0.79166667  0.95833333  0.03125000  1
  As  As1465  1  0.79166667  0.95833333  0.15625000  1
  As  As1466  1  0.79166667  0.95833333  0.28125000  1
  As  As1467  1  0.79166667  0.95833333  0.40625000  1
  As  As1468  1  0.79166667  0.95833333  0.53125000  1
  As  As1469  1  0.79166667  0.95833333  0.65625000  1
  As  As1470  1  0.79166667  0.95833333  0.78125000  1
  As  As1471  1  0.79166667  0.95833333  0.90625000  1
  As  As1472  1  0.91666667  0.08333333  0.03125000  1
  As  As1473  1  0.91666667  0.08333333  0.15625000  1
  As  As1474  1  0.91666667  0.08333333  0.28125000  1
  As  As1475  1  0.91666667  0.08333333  0.40625000  1
  As  As1476  1  0.91666667  0.08333333  0.53125000  1
  As  As1477  1  0.91666667  0.08333333  0.65625000  1
  As  As1478  1  0.91666667  0.08333333  0.78125000  1
  As  As1479  1  0.91666667  0.08333333  0.90625000  1
  As  As1480  1  0.91666667  0.20833333  0.03125000  1
  As  As1481  1  0.91666667  0.20833333  0.15625000  1
  As  As1482  1  0.91666667  0.20833333  0.28125000  1
  As  As1483  1  0.91666667  0.20833333  0.40625000  1
  As  As1484  1  0.91666667  0.20833333  0.53125000  1
  As  As1485  1  0.91666667  0.20833333  0.65625000  1
  As  As1486  1  0.91666667  0.20833333  0.78125000  1
  As  As1487  1  0.91666667  0.20833333  0.90625000  1
  As  As1488  1  0.91666667  0.33333333  0.03125000  1
  As  As1489  1  0.91666667  0.33333333  0.15625000  1
  As  As1490  1  0.91666667  0.33333333  0.28125000  1
  As  As1491  1  0.91666667  0.33333333  0.40625000  1
  As  As1492  1  0.91666667  0.33333333  0.53125000  1
  As  As1493  1  0.91666667  0.33333333  0.65625000  1
  As  As1494  1  0.91666667  0.33333333  0.78125000  1
  As  As1495  1  0.91666667  0.33333333  0.90625000  1
  As  As1496  1  0.91666667  0.45833333  0.03125000  1
  As  As1497  1  0.91666667  0.45833333  0.15625000  1
  As  As1498  1  0.91666667  0.45833333  0.28125000  1
  As  As1499  1  0.91666667  0.45833333  0.40625000  1
  As  As1500  1  0.91666667  0.45833333  0.53125000  1
  As  As1501  1  0.91666667  0.45833333  0.65625000  1
  As  As1502  1  0.91666667  0.45833333  0.78125000  1
  As  As1503  1  0.91666667  0.45833333  0.90625000  1
  As  As1504  1  0.91666667  0.58333333  0.03125000  1
  As  As1505  1  0.91666667  0.58333333  0.15625000  1
  As  As1506  1  0.91666667  0.58333333  0.28125000  1
  As  As1507  1  0.91666667  0.58333333  0.40625000  1
  As  As1508  1  0.91666667  0.58333333  0.53125000  1
  As  As1509  1  0.91666667  0.58333333  0.65625000  1
  As  As1510  1  0.91666667  0.58333333  0.78125000  1
  As  As1511  1  0.91666667  0.58333333  0.90625000  1
  As  As1512  1  0.91666667  0.70833333  0.03125000  1
  As  As1513  1  0.91666667  0.70833333  0.15625000  1
  As  As1514  1  0.91666667  0.70833333  0.28125000  1
  As  As1515  1  0.91666667  0.70833333  0.40625000  1
  As  As1516  1  0.91666667  0.70833333  0.53125000  1
  As  As1517  1  0.91666667  0.70833333  0.65625000  1
  As  As1518  1  0.91666667  0.70833333  0.78125000  1
  As  As1519  1  0.91666667  0.70833333  0.90625000  1
  As  As1520  1  0.91666667  0.83333333  0.03125000  1
  As  As1521  1  0.91666667  0.83333333  0.15625000  1
  As  As1522  1  0.91666667  0.83333333  0.28125000  1
  As  As1523  1  0.91666667  0.83333333  0.40625000  1
  As  As1524  1  0.91666667  0.83333333  0.53125000  1
  As  As1525  1  0.91666667  0.83333333  0.65625000  1
  As  As1526  1  0.91666667  0.83333333  0.78125000  1
  As  As1527  1  0.91666667  0.83333333  0.90625000  1
  As  As1528  1  0.91666667  0.95833333  0.03125000  1
  As  As1529  1  0.91666667  0.95833333  0.15625000  1
  As  As1530  1  0.91666667  0.95833333  0.28125000  1
  As  As1531  1  0.91666667  0.95833333  0.40625000  1
  As  As1532  1  0.91666667  0.95833333  0.53125000  1
  As  As1533  1  0.91666667  0.95833333  0.65625000  1
  As  As1534  1  0.91666667  0.95833333  0.78125000  1
  As  As1535  1  0.91666667  0.95833333  0.90625000  1
  As  As1536  1  0.08333333  0.04166667  0.09375000  1
  As  As1537  1  0.08333333  0.04166667  0.21875000  1
  As  As1538  1  0.08333333  0.04166667  0.34375000  1
  As  As1539  1  0.08333333  0.04166667  0.46875000  1
  As  As1540  1  0.08333333  0.04166667  0.59375000  1
  As  As1541  1  0.08333333  0.04166667  0.71875000  1
  As  As1542  1  0.08333333  0.04166667  0.84375000  1
  As  As1543  1  0.08333333  0.04166667  0.96875000  1
  As  As1544  1  0.08333333  0.16666667  0.09375000  1
  As  As1545  1  0.08333333  0.16666667  0.21875000  1
  As  As1546  1  0.08333333  0.16666667  0.34375000  1
  As  As1547  1  0.08333333  0.16666667  0.46875000  1
  As  As1548  1  0.08333333  0.16666667  0.59375000  1
  As  As1549  1  0.08333333  0.16666667  0.71875000  1
  As  As1550  1  0.08333333  0.16666667  0.84375000  1
  As  As1551  1  0.08333333  0.16666667  0.96875000  1
  As  As1552  1  0.08333333  0.29166667  0.09375000  1
  As  As1553  1  0.08333333  0.29166667  0.21875000  1
  As  As1554  1  0.08333333  0.29166667  0.34375000  1
  As  As1555  1  0.08333333  0.29166667  0.46875000  1
  As  As1556  1  0.08333333  0.29166667  0.59375000  1
  As  As1557  1  0.08333333  0.29166667  0.71875000  1
  As  As1558  1  0.08333333  0.29166667  0.84375000  1
  As  As1559  1  0.08333333  0.29166667  0.96875000  1
  As  As1560  1  0.08333333  0.41666667  0.09375000  1
  As  As1561  1  0.08333333  0.41666667  0.21875000  1
  As  As1562  1  0.08333333  0.41666667  0.34375000  1
  As  As1563  1  0.08333333  0.41666667  0.46875000  1
  As  As1564  1  0.08333333  0.41666667  0.59375000  1
  As  As1565  1  0.08333333  0.41666667  0.71875000  1
  As  As1566  1  0.08333333  0.41666667  0.84375000  1
  As  As1567  1  0.08333333  0.41666667  0.96875000  1
  As  As1568  1  0.08333333  0.54166667  0.09375000  1
  As  As1569  1  0.08333333  0.54166667  0.21875000  1
  As  As1570  1  0.08333333  0.54166667  0.34375000  1
  As  As1571  1  0.08333333  0.54166667  0.46875000  1
  As  As1572  1  0.08333333  0.54166667  0.59375000  1
  As  As1573  1  0.08333333  0.54166667  0.71875000  1
  As  As1574  1  0.08333333  0.54166667  0.84375000  1
  As  As1575  1  0.08333333  0.54166667  0.96875000  1
  As  As1576  1  0.08333333  0.66666667  0.09375000  1
  As  As1577  1  0.08333333  0.66666667  0.21875000  1
  As  As1578  1  0.08333333  0.66666667  0.34375000  1
  As  As1579  1  0.08333333  0.66666667  0.46875000  1
  As  As1580  1  0.08333333  0.66666667  0.59375000  1
  As  As1581  1  0.08333333  0.66666667  0.71875000  1
  As  As1582  1  0.08333333  0.66666667  0.84375000  1
  As  As1583  1  0.08333333  0.66666667  0.96875000  1
  As  As1584  1  0.08333333  0.79166667  0.09375000  1
  As  As1585  1  0.08333333  0.79166667  0.21875000  1
  As  As1586  1  0.08333333  0.79166667  0.34375000  1
  As  As1587  1  0.08333333  0.79166667  0.46875000  1
  As  As1588  1  0.08333333  0.79166667  0.59375000  1
  As  As1589  1  0.08333333  0.79166667  0.71875000  1
  As  As1590  1  0.08333333  0.79166667  0.84375000  1
  As  As1591  1  0.08333333  0.79166667  0.96875000  1
  As  As1592  1  0.08333333  0.91666667  0.09375000  1
  As  As1593  1  0.08333333  0.91666667  0.21875000  1
  As  As1594  1  0.08333333  0.91666667  0.34375000  1
  As  As1595  1  0.08333333  0.91666667  0.46875000  1
  As  As1596  1  0.08333333  0.91666667  0.59375000  1
  As  As1597  1  0.08333333  0.91666667  0.71875000  1
  As  As1598  1  0.08333333  0.91666667  0.84375000  1
  As  As1599  1  0.08333333  0.91666667  0.96875000  1
  As  As1600  1  0.20833333  0.04166667  0.09375000  1
  As  As1601  1  0.20833333  0.04166667  0.21875000  1
  As  As1602  1  0.20833333  0.04166667  0.34375000  1
  As  As1603  1  0.20833333  0.04166667  0.46875000  1
  As  As1604  1  0.20833333  0.04166667  0.59375000  1
  As  As1605  1  0.20833333  0.04166667  0.71875000  1
  As  As1606  1  0.20833333  0.04166667  0.84375000  1
  As  As1607  1  0.20833333  0.04166667  0.96875000  1
  As  As1608  1  0.20833333  0.16666667  0.09375000  1
  As  As1609  1  0.20833333  0.16666667  0.21875000  1
  As  As1610  1  0.20833333  0.16666667  0.34375000  1
  As  As1611  1  0.20833333  0.16666667  0.46875000  1
  As  As1612  1  0.20833333  0.16666667  0.59375000  1
  As  As1613  1  0.20833333  0.16666667  0.71875000  1
  As  As1614  1  0.20833333  0.16666667  0.84375000  1
  As  As1615  1  0.20833333  0.16666667  0.96875000  1
  As  As1616  1  0.20833333  0.29166667  0.09375000  1
  As  As1617  1  0.20833333  0.29166667  0.21875000  1
  As  As1618  1  0.20833333  0.29166667  0.34375000  1
  As  As1619  1  0.20833333  0.29166667  0.46875000  1
  As  As1620  1  0.20833333  0.29166667  0.59375000  1
  As  As1621  1  0.20833333  0.29166667  0.71875000  1
  As  As1622  1  0.20833333  0.29166667  0.84375000  1
  As  As1623  1  0.20833333  0.29166667  0.96875000  1
  As  As1624  1  0.20833333  0.41666667  0.09375000  1
  As  As1625  1  0.20833333  0.41666667  0.21875000  1
  As  As1626  1  0.20833333  0.41666667  0.34375000  1
  As  As1627  1  0.20833333  0.41666667  0.46875000  1
  As  As1628  1  0.20833333  0.41666667  0.59375000  1
  As  As1629  1  0.20833333  0.41666667  0.71875000  1
  As  As1630  1  0.20833333  0.41666667  0.84375000  1
  As  As1631  1  0.20833333  0.41666667  0.96875000  1
  As  As1632  1  0.20833333  0.54166667  0.09375000  1
  As  As1633  1  0.20833333  0.54166667  0.21875000  1
  As  As1634  1  0.20833333  0.54166667  0.34375000  1
  As  As1635  1  0.20833333  0.54166667  0.46875000  1
  As  As1636  1  0.20833333  0.54166667  0.59375000  1
  As  As1637  1  0.20833333  0.54166667  0.71875000  1
  As  As1638  1  0.20833333  0.54166667  0.84375000  1
  As  As1639  1  0.20833333  0.54166667  0.96875000  1
  As  As1640  1  0.20833333  0.66666667  0.09375000  1
  As  As1641  1  0.20833333  0.66666667  0.21875000  1
  As  As1642  1  0.20833333  0.66666667  0.34375000  1
  As  As1643  1  0.20833333  0.66666667  0.46875000  1
  As  As1644  1  0.20833333  0.66666667  0.59375000  1
  As  As1645  1  0.20833333  0.66666667  0.71875000  1
  As  As1646  1  0.20833333  0.66666667  0.84375000  1
  As  As1647  1  0.20833333  0.66666667  0.96875000  1
  As  As1648  1  0.20833333  0.79166667  0.09375000  1
  As  As1649  1  0.20833333  0.79166667  0.21875000  1
  As  As1650  1  0.20833333  0.79166667  0.34375000  1
  As  As1651  1  0.20833333  0.79166667  0.46875000  1
  As  As1652  1  0.20833333  0.79166667  0.59375000  1
  As  As1653  1  0.20833333  0.79166667  0.71875000  1
  As  As1654  1  0.20833333  0.79166667  0.84375000  1
  As  As1655  1  0.20833333  0.79166667  0.96875000  1
  As  As1656  1  0.20833333  0.91666667  0.09375000  1
  As  As1657  1  0.20833333  0.91666667  0.21875000  1
  As  As1658  1  0.20833333  0.91666667  0.34375000  1
  As  As1659  1  0.20833333  0.91666667  0.46875000  1
  As  As1660  1  0.20833333  0.91666667  0.59375000  1
  As  As1661  1  0.20833333  0.91666667  0.71875000  1
  As  As1662  1  0.20833333  0.91666667  0.84375000  1
  As  As1663  1  0.20833333  0.91666667  0.96875000  1
  As  As1664  1  0.33333333  0.04166667  0.09375000  1
  As  As1665  1  0.33333333  0.04166667  0.21875000  1
  As  As1666  1  0.33333333  0.04166667  0.34375000  1
  As  As1667  1  0.33333333  0.04166667  0.46875000  1
  As  As1668  1  0.33333333  0.04166667  0.59375000  1
  As  As1669  1  0.33333333  0.04166667  0.71875000  1
  As  As1670  1  0.33333333  0.04166667  0.84375000  1
  As  As1671  1  0.33333333  0.04166667  0.96875000  1
  As  As1672  1  0.33333333  0.16666667  0.09375000  1
  As  As1673  1  0.33333333  0.16666667  0.21875000  1
  As  As1674  1  0.33333333  0.16666667  0.34375000  1
  As  As1675  1  0.33333333  0.16666667  0.46875000  1
  As  As1676  1  0.33333333  0.16666667  0.59375000  1
  As  As1677  1  0.33333333  0.16666667  0.71875000  1
  As  As1678  1  0.33333333  0.16666667  0.84375000  1
  As  As1679  1  0.33333333  0.16666667  0.96875000  1
  As  As1680  1  0.33333333  0.29166667  0.09375000  1
  As  As1681  1  0.33333333  0.29166667  0.21875000  1
  As  As1682  1  0.33333333  0.29166667  0.34375000  1
  As  As1683  1  0.33333333  0.29166667  0.46875000  1
  As  As1684  1  0.33333333  0.29166667  0.59375000  1
  As  As1685  1  0.33333333  0.29166667  0.71875000  1
  As  As1686  1  0.33333333  0.29166667  0.84375000  1
  As  As1687  1  0.33333333  0.29166667  0.96875000  1
  As  As1688  1  0.33333333  0.41666667  0.09375000  1
  As  As1689  1  0.33333333  0.41666667  0.21875000  1
  As  As1690  1  0.33333333  0.41666667  0.34375000  1
  As  As1691  1  0.33333333  0.41666667  0.46875000  1
  As  As1692  1  0.33333333  0.41666667  0.59375000  1
  As  As1693  1  0.33333333  0.41666667  0.71875000  1
  As  As1694  1  0.33333333  0.41666667  0.84375000  1
  As  As1695  1  0.33333333  0.41666667  0.96875000  1
  As  As1696  1  0.33333333  0.54166667  0.09375000  1
  As  As1697  1  0.33333333  0.54166667  0.21875000  1
  As  As1698  1  0.33333333  0.54166667  0.34375000  1
  As  As1699  1  0.33333333  0.54166667  0.46875000  1
  As  As1700  1  0.33333333  0.54166667  0.59375000  1
  As  As1701  1  0.33333333  0.54166667  0.71875000  1
  As  As1702  1  0.33333333  0.54166667  0.84375000  1
  As  As1703  1  0.33333333  0.54166667  0.96875000  1
  As  As1704  1  0.33333333  0.66666667  0.09375000  1
  As  As1705  1  0.33333333  0.66666667  0.21875000  1
  As  As1706  1  0.33333333  0.66666667  0.34375000  1
  As  As1707  1  0.33333333  0.66666667  0.46875000  1
  As  As1708  1  0.33333333  0.66666667  0.59375000  1
  As  As1709  1  0.33333333  0.66666667  0.71875000  1
  As  As1710  1  0.33333333  0.66666667  0.84375000  1
  As  As1711  1  0.33333333  0.66666667  0.96875000  1
  As  As1712  1  0.33333333  0.79166667  0.09375000  1
  As  As1713  1  0.33333333  0.79166667  0.21875000  1
  As  As1714  1  0.33333333  0.79166667  0.34375000  1
  As  As1715  1  0.33333333  0.79166667  0.46875000  1
  As  As1716  1  0.33333333  0.79166667  0.59375000  1
  As  As1717  1  0.33333333  0.79166667  0.71875000  1
  As  As1718  1  0.33333333  0.79166667  0.84375000  1
  As  As1719  1  0.33333333  0.79166667  0.96875000  1
  As  As1720  1  0.33333333  0.91666667  0.09375000  1
  As  As1721  1  0.33333333  0.91666667  0.21875000  1
  As  As1722  1  0.33333333  0.91666667  0.34375000  1
  As  As1723  1  0.33333333  0.91666667  0.46875000  1
  As  As1724  1  0.33333333  0.91666667  0.59375000  1
  As  As1725  1  0.33333333  0.91666667  0.71875000  1
  As  As1726  1  0.33333333  0.91666667  0.84375000  1
  As  As1727  1  0.33333333  0.91666667  0.96875000  1
  As  As1728  1  0.45833333  0.04166667  0.09375000  1
  As  As1729  1  0.45833333  0.04166667  0.21875000  1
  As  As1730  1  0.45833333  0.04166667  0.34375000  1
  As  As1731  1  0.45833333  0.04166667  0.46875000  1
  As  As1732  1  0.45833333  0.04166667  0.59375000  1
  As  As1733  1  0.45833333  0.04166667  0.71875000  1
  As  As1734  1  0.45833333  0.04166667  0.84375000  1
  As  As1735  1  0.45833333  0.04166667  0.96875000  1
  As  As1736  1  0.45833333  0.16666667  0.09375000  1
  As  As1737  1  0.45833333  0.16666667  0.21875000  1
  As  As1738  1  0.45833333  0.16666667  0.34375000  1
  As  As1739  1  0.45833333  0.16666667  0.46875000  1
  As  As1740  1  0.45833333  0.16666667  0.59375000  1
  As  As1741  1  0.45833333  0.16666667  0.71875000  1
  As  As1742  1  0.45833333  0.16666667  0.84375000  1
  As  As1743  1  0.45833333  0.16666667  0.96875000  1
  As  As1744  1  0.45833333  0.29166667  0.09375000  1
  As  As1745  1  0.45833333  0.29166667  0.21875000  1
  As  As1746  1  0.45833333  0.29166667  0.34375000  1
  As  As1747  1  0.45833333  0.29166667  0.46875000  1
  As  As1748  1  0.45833333  0.29166667  0.59375000  1
  As  As1749  1  0.45833333  0.29166667  0.71875000  1
  As  As1750  1  0.45833333  0.29166667  0.84375000  1
  As  As1751  1  0.45833333  0.29166667  0.96875000  1
  As  As1752  1  0.45833333  0.41666667  0.09375000  1
  As  As1753  1  0.45833333  0.41666667  0.21875000  1
  As  As1754  1  0.45833333  0.41666667  0.34375000  1
  As  As1755  1  0.45833333  0.41666667  0.46875000  1
  As  As1756  1  0.45833333  0.41666667  0.59375000  1
  As  As1757  1  0.45833333  0.41666667  0.71875000  1
  As  As1758  1  0.45833333  0.41666667  0.84375000  1
  As  As1759  1  0.45833333  0.41666667  0.96875000  1
  As  As1760  1  0.45833333  0.54166667  0.09375000  1
  As  As1761  1  0.45833333  0.54166667  0.21875000  1
  As  As1762  1  0.45833333  0.54166667  0.34375000  1
  As  As1763  1  0.45833333  0.54166667  0.46875000  1
  As  As1764  1  0.45833333  0.54166667  0.59375000  1
  As  As1765  1  0.45833333  0.54166667  0.71875000  1
  As  As1766  1  0.45833333  0.54166667  0.84375000  1
  As  As1767  1  0.45833333  0.54166667  0.96875000  1
  As  As1768  1  0.45833333  0.66666667  0.09375000  1
  As  As1769  1  0.45833333  0.66666667  0.21875000  1
  As  As1770  1  0.45833333  0.66666667  0.34375000  1
  As  As1771  1  0.45833333  0.66666667  0.46875000  1
  As  As1772  1  0.45833333  0.66666667  0.59375000  1
  As  As1773  1  0.45833333  0.66666667  0.71875000  1
  As  As1774  1  0.45833333  0.66666667  0.84375000  1
  As  As1775  1  0.45833333  0.66666667  0.96875000  1
  As  As1776  1  0.45833333  0.79166667  0.09375000  1
  As  As1777  1  0.45833333  0.79166667  0.21875000  1
  As  As1778  1  0.45833333  0.79166667  0.34375000  1
  As  As1779  1  0.45833333  0.79166667  0.46875000  1
  As  As1780  1  0.45833333  0.79166667  0.59375000  1
  As  As1781  1  0.45833333  0.79166667  0.71875000  1
  As  As1782  1  0.45833333  0.79166667  0.84375000  1
  As  As1783  1  0.45833333  0.79166667  0.96875000  1
  As  As1784  1  0.45833333  0.91666667  0.09375000  1
  As  As1785  1  0.45833333  0.91666667  0.21875000  1
  As  As1786  1  0.45833333  0.91666667  0.34375000  1
  As  As1787  1  0.45833333  0.91666667  0.46875000  1
  As  As1788  1  0.45833333  0.91666667  0.59375000  1
  As  As1789  1  0.45833333  0.91666667  0.71875000  1
  As  As1790  1  0.45833333  0.91666667  0.84375000  1
  As  As1791  1  0.45833333  0.91666667  0.96875000  1
  As  As1792  1  0.58333333  0.04166667  0.09375000  1
  As  As1793  1  0.58333333  0.04166667  0.21875000  1
  As  As1794  1  0.58333333  0.04166667  0.34375000  1
  As  As1795  1  0.58333333  0.04166667  0.46875000  1
  As  As1796  1  0.58333333  0.04166667  0.59375000  1
  As  As1797  1  0.58333333  0.04166667  0.71875000  1
  As  As1798  1  0.58333333  0.04166667  0.84375000  1
  As  As1799  1  0.58333333  0.04166667  0.96875000  1
  As  As1800  1  0.58333333  0.16666667  0.09375000  1
  As  As1801  1  0.58333333  0.16666667  0.21875000  1
  As  As1802  1  0.58333333  0.16666667  0.34375000  1
  As  As1803  1  0.58333333  0.16666667  0.46875000  1
  As  As1804  1  0.58333333  0.16666667  0.59375000  1
  As  As1805  1  0.58333333  0.16666667  0.71875000  1
  As  As1806  1  0.58333333  0.16666667  0.84375000  1
  As  As1807  1  0.58333333  0.16666667  0.96875000  1
  As  As1808  1  0.58333333  0.29166667  0.09375000  1
  As  As1809  1  0.58333333  0.29166667  0.21875000  1
  As  As1810  1  0.58333333  0.29166667  0.34375000  1
  As  As1811  1  0.58333333  0.29166667  0.46875000  1
  As  As1812  1  0.58333333  0.29166667  0.59375000  1
  As  As1813  1  0.58333333  0.29166667  0.71875000  1
  As  As1814  1  0.58333333  0.29166667  0.84375000  1
  As  As1815  1  0.58333333  0.29166667  0.96875000  1
  As  As1816  1  0.58333333  0.41666667  0.09375000  1
  As  As1817  1  0.58333333  0.41666667  0.21875000  1
  As  As1818  1  0.58333333  0.41666667  0.34375000  1
  As  As1819  1  0.58333333  0.41666667  0.46875000  1
  As  As1820  1  0.58333333  0.41666667  0.59375000  1
  As  As1821  1  0.58333333  0.41666667  0.71875000  1
  As  As1822  1  0.58333333  0.41666667  0.84375000  1
  As  As1823  1  0.58333333  0.41666667  0.96875000  1
  As  As1824  1  0.58333333  0.54166667  0.09375000  1
  As  As1825  1  0.58333333  0.54166667  0.21875000  1
  As  As1826  1  0.58333333  0.54166667  0.34375000  1
  As  As1827  1  0.58333333  0.54166667  0.46875000  1
  As  As1828  1  0.58333333  0.54166667  0.59375000  1
  As  As1829  1  0.58333333  0.54166667  0.71875000  1
  As  As1830  1  0.58333333  0.54166667  0.84375000  1
  As  As1831  1  0.58333333  0.54166667  0.96875000  1
  As  As1832  1  0.58333333  0.66666667  0.09375000  1
  As  As1833  1  0.58333333  0.66666667  0.21875000  1
  As  As1834  1  0.58333333  0.66666667  0.34375000  1
  As  As1835  1  0.58333333  0.66666667  0.46875000  1
  As  As1836  1  0.58333333  0.66666667  0.59375000  1
  As  As1837  1  0.58333333  0.66666667  0.71875000  1
  As  As1838  1  0.58333333  0.66666667  0.84375000  1
  As  As1839  1  0.58333333  0.66666667  0.96875000  1
  As  As1840  1  0.58333333  0.79166667  0.09375000  1
  As  As1841  1  0.58333333  0.79166667  0.21875000  1
  As  As1842  1  0.58333333  0.79166667  0.34375000  1
  As  As1843  1  0.58333333  0.79166667  0.46875000  1
  As  As1844  1  0.58333333  0.79166667  0.59375000  1
  As  As1845  1  0.58333333  0.79166667  0.71875000  1
  As  As1846  1  0.58333333  0.79166667  0.84375000  1
  As  As1847  1  0.58333333  0.79166667  0.96875000  1
  As  As1848  1  0.58333333  0.91666667  0.09375000  1
  As  As1849  1  0.58333333  0.91666667  0.21875000  1
  As  As1850  1  0.58333333  0.91666667  0.34375000  1
  As  As1851  1  0.58333333  0.91666667  0.46875000  1
  As  As1852  1  0.58333333  0.91666667  0.59375000  1
  As  As1853  1  0.58333333  0.91666667  0.71875000  1
  As  As1854  1  0.58333333  0.91666667  0.84375000  1
  As  As1855  1  0.58333333  0.91666667  0.96875000  1
  As  As1856  1  0.70833333  0.04166667  0.09375000  1
  As  As1857  1  0.70833333  0.04166667  0.21875000  1
  As  As1858  1  0.70833333  0.04166667  0.34375000  1
  As  As1859  1  0.70833333  0.04166667  0.46875000  1
  As  As1860  1  0.70833333  0.04166667  0.59375000  1
  As  As1861  1  0.70833333  0.04166667  0.71875000  1
  As  As1862  1  0.70833333  0.04166667  0.84375000  1
  As  As1863  1  0.70833333  0.04166667  0.96875000  1
  As  As1864  1  0.70833333  0.16666667  0.09375000  1
  As  As1865  1  0.70833333  0.16666667  0.21875000  1
  As  As1866  1  0.70833333  0.16666667  0.34375000  1
  As  As1867  1  0.70833333  0.16666667  0.46875000  1
  As  As1868  1  0.70833333  0.16666667  0.59375000  1
  As  As1869  1  0.70833333  0.16666667  0.71875000  1
  As  As1870  1  0.70833333  0.16666667  0.84375000  1
  As  As1871  1  0.70833333  0.16666667  0.96875000  1
  As  As1872  1  0.70833333  0.29166667  0.09375000  1
  As  As1873  1  0.70833333  0.29166667  0.21875000  1
  As  As1874  1  0.70833333  0.29166667  0.34375000  1
  As  As1875  1  0.70833333  0.29166667  0.46875000  1
  As  As1876  1  0.70833333  0.29166667  0.59375000  1
  As  As1877  1  0.70833333  0.29166667  0.71875000  1
  As  As1878  1  0.70833333  0.29166667  0.84375000  1
  As  As1879  1  0.70833333  0.29166667  0.96875000  1
  As  As1880  1  0.70833333  0.41666667  0.09375000  1
  As  As1881  1  0.70833333  0.41666667  0.21875000  1
  As  As1882  1  0.70833333  0.41666667  0.34375000  1
  As  As1883  1  0.70833333  0.41666667  0.46875000  1
  As  As1884  1  0.70833333  0.41666667  0.59375000  1
  As  As1885  1  0.70833333  0.41666667  0.71875000  1
  As  As1886  1  0.70833333  0.41666667  0.84375000  1
  As  As1887  1  0.70833333  0.41666667  0.96875000  1
  As  As1888  1  0.70833333  0.54166667  0.09375000  1
  As  As1889  1  0.70833333  0.54166667  0.21875000  1
  As  As1890  1  0.70833333  0.54166667  0.34375000  1
  As  As1891  1  0.70833333  0.54166667  0.46875000  1
  As  As1892  1  0.70833333  0.54166667  0.59375000  1
  As  As1893  1  0.70833333  0.54166667  0.71875000  1
  As  As1894  1  0.70833333  0.54166667  0.84375000  1
  As  As1895  1  0.70833333  0.54166667  0.96875000  1
  As  As1896  1  0.70833333  0.66666667  0.09375000  1
  As  As1897  1  0.70833333  0.66666667  0.21875000  1
  As  As1898  1  0.70833333  0.66666667  0.34375000  1
  As  As1899  1  0.70833333  0.66666667  0.46875000  1
  As  As1900  1  0.70833333  0.66666667  0.59375000  1
  As  As1901  1  0.70833333  0.66666667  0.71875000  1
  As  As1902  1  0.70833333  0.66666667  0.84375000  1
  As  As1903  1  0.70833333  0.66666667  0.96875000  1
  As  As1904  1  0.70833333  0.79166667  0.09375000  1
  As  As1905  1  0.70833333  0.79166667  0.21875000  1
  As  As1906  1  0.70833333  0.79166667  0.34375000  1
  As  As1907  1  0.70833333  0.79166667  0.46875000  1
  As  As1908  1  0.70833333  0.79166667  0.59375000  1
  As  As1909  1  0.70833333  0.79166667  0.71875000  1
  As  As1910  1  0.70833333  0.79166667  0.84375000  1
  As  As1911  1  0.70833333  0.79166667  0.96875000  1
  As  As1912  1  0.70833333  0.91666667  0.09375000  1
  As  As1913  1  0.70833333  0.91666667  0.21875000  1
  As  As1914  1  0.70833333  0.91666667  0.34375000  1
  As  As1915  1  0.70833333  0.91666667  0.46875000  1
  As  As1916  1  0.70833333  0.91666667  0.59375000  1
  As  As1917  1  0.70833333  0.91666667  0.71875000  1
  As  As1918  1  0.70833333  0.91666667  0.84375000  1
  As  As1919  1  0.70833333  0.91666667  0.96875000  1
  As  As1920  1  0.83333333  0.04166667  0.09375000  1
  As  As1921  1  0.83333333  0.04166667  0.21875000  1
  As  As1922  1  0.83333333  0.04166667  0.34375000  1
  As  As1923  1  0.83333333  0.04166667  0.46875000  1
  As  As1924  1  0.83333333  0.04166667  0.59375000  1
  As  As1925  1  0.83333333  0.04166667  0.71875000  1
  As  As1926  1  0.83333333  0.04166667  0.84375000  1
  As  As1927  1  0.83333333  0.04166667  0.96875000  1
  As  As1928  1  0.83333333  0.16666667  0.09375000  1
  As  As1929  1  0.83333333  0.16666667  0.21875000  1
  As  As1930  1  0.83333333  0.16666667  0.34375000  1
  As  As1931  1  0.83333333  0.16666667  0.46875000  1
  As  As1932  1  0.83333333  0.16666667  0.59375000  1
  As  As1933  1  0.83333333  0.16666667  0.71875000  1
  As  As1934  1  0.83333333  0.16666667  0.84375000  1
  As  As1935  1  0.83333333  0.16666667  0.96875000  1
  As  As1936  1  0.83333333  0.29166667  0.09375000  1
  As  As1937  1  0.83333333  0.29166667  0.21875000  1
  As  As1938  1  0.83333333  0.29166667  0.34375000  1
  As  As1939  1  0.83333333  0.29166667  0.46875000  1
  As  As1940  1  0.83333333  0.29166667  0.59375000  1
  As  As1941  1  0.83333333  0.29166667  0.71875000  1
  As  As1942  1  0.83333333  0.29166667  0.84375000  1
  As  As1943  1  0.83333333  0.29166667  0.96875000  1
  As  As1944  1  0.83333333  0.41666667  0.09375000  1
  As  As1945  1  0.83333333  0.41666667  0.21875000  1
  As  As1946  1  0.83333333  0.41666667  0.34375000  1
  As  As1947  1  0.83333333  0.41666667  0.46875000  1
  As  As1948  1  0.83333333  0.41666667  0.59375000  1
  As  As1949  1  0.83333333  0.41666667  0.71875000  1
  As  As1950  1  0.83333333  0.41666667  0.84375000  1
  As  As1951  1  0.83333333  0.41666667  0.96875000  1
  As  As1952  1  0.83333333  0.54166667  0.09375000  1
  As  As1953  1  0.83333333  0.54166667  0.21875000  1
  As  As1954  1  0.83333333  0.54166667  0.34375000  1
  As  As1955  1  0.83333333  0.54166667  0.46875000  1
  As  As1956  1  0.83333333  0.54166667  0.59375000  1
  As  As1957  1  0.83333333  0.54166667  0.71875000  1
  As  As1958  1  0.83333333  0.54166667  0.84375000  1
  As  As1959  1  0.83333333  0.54166667  0.96875000  1
  As  As1960  1  0.83333333  0.66666667  0.09375000  1
  As  As1961  1  0.83333333  0.66666667  0.21875000  1
  As  As1962  1  0.83333333  0.66666667  0.34375000  1
  As  As1963  1  0.83333333  0.66666667  0.46875000  1
  As  As1964  1  0.83333333  0.66666667  0.59375000  1
  As  As1965  1  0.83333333  0.66666667  0.71875000  1
  As  As1966  1  0.83333333  0.66666667  0.84375000  1
  As  As1967  1  0.83333333  0.66666667  0.96875000  1
  As  As1968  1  0.83333333  0.79166667  0.09375000  1
  As  As1969  1  0.83333333  0.79166667  0.21875000  1
  As  As1970  1  0.83333333  0.79166667  0.34375000  1
  As  As1971  1  0.83333333  0.79166667  0.46875000  1
  As  As1972  1  0.83333333  0.79166667  0.59375000  1
  As  As1973  1  0.83333333  0.79166667  0.71875000  1
  As  As1974  1  0.83333333  0.79166667  0.84375000  1
  As  As1975  1  0.83333333  0.79166667  0.96875000  1
  As  As1976  1  0.83333333  0.91666667  0.09375000  1
  As  As1977  1  0.83333333  0.91666667  0.21875000  1
  As  As1978  1  0.83333333  0.91666667  0.34375000  1
  As  As1979  1  0.83333333  0.91666667  0.46875000  1
  As  As1980  1  0.83333333  0.91666667  0.59375000  1
  As  As1981  1  0.83333333  0.91666667  0.71875000  1
  As  As1982  1  0.83333333  0.91666667  0.84375000  1
  As  As1983  1  0.83333333  0.91666667  0.96875000  1
  As  As1984  1  0.95833333  0.04166667  0.09375000  1
  As  As1985  1  0.95833333  0.04166667  0.21875000  1
  As  As1986  1  0.95833333  0.04166667  0.34375000  1
  As  As1987  1  0.95833333  0.04166667  0.46875000  1
  As  As1988  1  0.95833333  0.04166667  0.59375000  1
  As  As1989  1  0.95833333  0.04166667  0.71875000  1
  As  As1990  1  0.95833333  0.04166667  0.84375000  1
  As  As1991  1  0.95833333  0.04166667  0.96875000  1
  As  As1992  1  0.95833333  0.16666667  0.09375000  1
  As  As1993  1  0.95833333  0.16666667  0.21875000  1
  As  As1994  1  0.95833333  0.16666667  0.34375000  1
  As  As1995  1  0.95833333  0.16666667  0.46875000  1
  As  As1996  1  0.95833333  0.16666667  0.59375000  1
  As  As1997  1  0.95833333  0.16666667  0.71875000  1
  As  As1998  1  0.95833333  0.16666667  0.84375000  1
  As  As1999  1  0.95833333  0.16666667  0.96875000  1
  As  As2000  1  0.95833333  0.29166667  0.09375000  1
  As  As2001  1  0.95833333  0.29166667  0.21875000  1
  As  As2002  1  0.95833333  0.29166667  0.34375000  1
  As  As2003  1  0.95833333  0.29166667  0.46875000  1
  As  As2004  1  0.95833333  0.29166667  0.59375000  1
  As  As2005  1  0.95833333  0.29166667  0.71875000  1
  As  As2006  1  0.95833333  0.29166667  0.84375000  1
  As  As2007  1  0.95833333  0.29166667  0.96875000  1
  As  As2008  1  0.95833333  0.41666667  0.09375000  1
  As  As2009  1  0.95833333  0.41666667  0.21875000  1
  As  As2010  1  0.95833333  0.41666667  0.34375000  1
  As  As2011  1  0.95833333  0.41666667  0.46875000  1
  As  As2012  1  0.95833333  0.41666667  0.59375000  1
  As  As2013  1  0.95833333  0.41666667  0.71875000  1
  As  As2014  1  0.95833333  0.41666667  0.84375000  1
  As  As2015  1  0.95833333  0.41666667  0.96875000  1
  As  As2016  1  0.95833333  0.54166667  0.09375000  1
  As  As2017  1  0.95833333  0.54166667  0.21875000  1
  As  As2018  1  0.95833333  0.54166667  0.34375000  1
  As  As2019  1  0.95833333  0.54166667  0.46875000  1
  As  As2020  1  0.95833333  0.54166667  0.59375000  1
  As  As2021  1  0.95833333  0.54166667  0.71875000  1
  As  As2022  1  0.95833333  0.54166667  0.84375000  1
  As  As2023  1  0.95833333  0.54166667  0.96875000  1
  As  As2024  1  0.95833333  0.66666667  0.09375000  1
  As  As2025  1  0.95833333  0.66666667  0.21875000  1
  As  As2026  1  0.95833333  0.66666667  0.34375000  1
  As  As2027  1  0.95833333  0.66666667  0.46875000  1
  As  As2028  1  0.95833333  0.66666667  0.59375000  1
  As  As2029  1  0.95833333  0.66666667  0.71875000  1
  As  As2030  1  0.95833333  0.66666667  0.84375000  1
  As  As2031  1  0.95833333  0.66666667  0.96875000  1
  As  As2032  1  0.95833333  0.79166667  0.09375000  1
  As  As2033  1  0.95833333  0.79166667  0.21875000  1
  As  As2034  1  0.95833333  0.79166667  0.34375000  1
  As  As2035  1  0.95833333  0.79166667  0.46875000  1
  As  As2036  1  0.95833333  0.79166667  0.59375000  1
  As  As2037  1  0.95833333  0.79166667  0.71875000  1
  As  As2038  1  0.95833333  0.79166667  0.84375000  1
  As  As2039  1  0.95833333  0.79166667  0.96875000  1
  As  As2040  1  0.95833333  0.91666667  0.09375000  1
  As  As2041  1  0.95833333  0.91666667  0.21875000  1
  As  As2042  1  0.95833333  0.91666667  0.34375000  1
  As  As2043  1  0.95833333  0.91666667  0.46875000  1
  As  As2044  1  0.95833333  0.91666667  0.59375000  1
  As  As2045  1  0.95833333  0.91666667  0.71875000  1
  As  As2046  1  0.95833333  0.91666667  0.84375000  1
  As  As2047  1  0.95833333  0.91666667  0.96875000  1
