# generated using pymatgen
data_Mn43Ni29As72
_symmetry_space_group_name_H-M   'P 1'
_cell_length_a   21.87482430
_cell_length_b   21.87482430
_cell_length_c   30.27039600
_cell_angle_alpha   90.00000000
_cell_angle_beta   90.00000000
_cell_angle_gamma   120.00000000
_symmetry_Int_Tables_number   1
_chemical_formula_structural   Mn43Ni29As72
_chemical_formula_sum   'Mn258 Ni174 As432'
_cell_volume   12544.05302127
_cell_formula_units_Z   6
loop_
 _symmetry_equiv_pos_site_id
 _symmetry_equiv_pos_as_xyz
  1  'x, y, z'
loop_
 _atom_site_type_symbol
 _atom_site_label
 _atom_site_symmetry_multiplicity
 _atom_site_fract_x
 _atom_site_fract_y
 _atom_site_fract_z
 _atom_site_occupancy
  Mn  Mn0  1  0.00000000  0.00000000  0.00000000  1
  Mn  Mn1  1  0.00000000  0.00000000  0.16666667  1
  Ni  Ni2  1  0.00000000  0.00000000  0.33333333  1
  Mn  Mn3  1  0.00000000  0.00000000  0.50000000  1
  Mn  Mn4  1  0.00000000  0.00000000  0.66666667  1
  Ni  Ni5  1  0.00000000  0.00000000  0.83333333  1
  Ni  Ni6  1  0.00000000  0.16666667  0.00000000  1
  Mn  Mn7  1  0.00000000  0.16666667  0.16666667  1
  Ni  Ni8  1  0.00000000  0.16666667  0.33333333  1
  Mn  Mn9  1  0.00000000  0.16666667  0.50000000  1
  Mn  Mn10  1  0.00000000  0.16666667  0.66666667  1
  Ni  Ni11  1  0.00000000  0.16666667  0.83333333  1
  Mn  Mn12  1  0.00000000  0.33333333  0.00000000  1
  Mn  Mn13  1  0.00000000  0.33333333  0.16666667  1
  Mn  Mn14  1  0.00000000  0.33333333  0.33333333  1
  Mn  Mn15  1  0.00000000  0.33333333  0.50000000  1
  Mn  Mn16  1  0.00000000  0.33333333  0.66666667  1
  Ni  Ni17  1  0.00000000  0.33333333  0.83333333  1
  Ni  Ni18  1  0.00000000  0.50000000  0.00000000  1
  Ni  Ni19  1  0.00000000  0.50000000  0.16666667  1
  Ni  Ni20  1  0.00000000  0.50000000  0.33333333  1
  Ni  Ni21  1  0.00000000  0.50000000  0.50000000  1
  Mn  Mn22  1  0.00000000  0.50000000  0.66666667  1
  Ni  Ni23  1  0.00000000  0.50000000  0.83333333  1
  Mn  Mn24  1  0.00000000  0.66666667  0.00000000  1
  Ni  Ni25  1  0.00000000  0.66666667  0.16666667  1
  Mn  Mn26  1  0.00000000  0.66666667  0.33333333  1
  Mn  Mn27  1  0.00000000  0.66666667  0.50000000  1
  Mn  Mn28  1  0.00000000  0.66666667  0.66666667  1
  Mn  Mn29  1  0.00000000  0.66666667  0.83333333  1
  Ni  Ni30  1  0.00000000  0.83333333  0.00000000  1
  Ni  Ni31  1  0.00000000  0.83333333  0.16666667  1
  Ni  Ni32  1  0.00000000  0.83333333  0.33333333  1
  Mn  Mn33  1  0.00000000  0.83333333  0.50000000  1
  Ni  Ni34  1  0.00000000  0.83333333  0.66666667  1
  Ni  Ni35  1  0.00000000  0.83333333  0.83333333  1
  Mn  Mn36  1  0.16666667  0.00000000  0.00000000  1
  Ni  Ni37  1  0.16666667  0.00000000  0.16666667  1
  Mn  Mn38  1  0.16666667  0.00000000  0.33333333  1
  Ni  Ni39  1  0.16666667  0.00000000  0.50000000  1
  Mn  Mn40  1  0.16666667  0.00000000  0.66666667  1
  Mn  Mn41  1  0.16666667  0.00000000  0.83333333  1
  Ni  Ni42  1  0.16666667  0.16666667  0.00000000  1
  Ni  Ni43  1  0.16666667  0.16666667  0.16666667  1
  Mn  Mn44  1  0.16666667  0.16666667  0.33333333  1
  Ni  Ni45  1  0.16666667  0.16666667  0.50000000  1
  Mn  Mn46  1  0.16666667  0.16666667  0.66666667  1
  Mn  Mn47  1  0.16666667  0.16666667  0.83333333  1
  Mn  Mn48  1  0.16666667  0.33333333  0.00000000  1
  Ni  Ni49  1  0.16666667  0.33333333  0.16666667  1
  Mn  Mn50  1  0.16666667  0.33333333  0.33333333  1
  Mn  Mn51  1  0.16666667  0.33333333  0.50000000  1
  Mn  Mn52  1  0.16666667  0.33333333  0.66666667  1
  Ni  Ni53  1  0.16666667  0.33333333  0.83333333  1
  Ni  Ni54  1  0.16666667  0.50000000  0.00000000  1
  Mn  Mn55  1  0.16666667  0.50000000  0.16666667  1
  Ni  Ni56  1  0.16666667  0.50000000  0.33333333  1
  Ni  Ni57  1  0.16666667  0.50000000  0.50000000  1
  Mn  Mn58  1  0.16666667  0.50000000  0.66666667  1
  Mn  Mn59  1  0.16666667  0.50000000  0.83333333  1
  Ni  Ni60  1  0.16666667  0.66666667  0.00000000  1
  Mn  Mn61  1  0.16666667  0.66666667  0.16666667  1
  Mn  Mn62  1  0.16666667  0.66666667  0.33333333  1
  Mn  Mn63  1  0.16666667  0.66666667  0.50000000  1
  Mn  Mn64  1  0.16666667  0.66666667  0.66666667  1
  Mn  Mn65  1  0.16666667  0.66666667  0.83333333  1
  Ni  Ni66  1  0.16666667  0.83333333  0.00000000  1
  Mn  Mn67  1  0.16666667  0.83333333  0.16666667  1
  Mn  Mn68  1  0.16666667  0.83333333  0.33333333  1
  Mn  Mn69  1  0.16666667  0.83333333  0.50000000  1
  Mn  Mn70  1  0.16666667  0.83333333  0.66666667  1
  Ni  Ni71  1  0.16666667  0.83333333  0.83333333  1
  Mn  Mn72  1  0.33333333  0.00000000  0.00000000  1
  Ni  Ni73  1  0.33333333  0.00000000  0.16666667  1
  Mn  Mn74  1  0.33333333  0.00000000  0.33333333  1
  Ni  Ni75  1  0.33333333  0.00000000  0.50000000  1
  Ni  Ni76  1  0.33333333  0.00000000  0.66666667  1
  Ni  Ni77  1  0.33333333  0.00000000  0.83333333  1
  Mn  Mn78  1  0.33333333  0.16666667  0.00000000  1
  Mn  Mn79  1  0.33333333  0.16666667  0.16666667  1
  Ni  Ni80  1  0.33333333  0.16666667  0.33333333  1
  Mn  Mn81  1  0.33333333  0.16666667  0.50000000  1
  Mn  Mn82  1  0.33333333  0.16666667  0.66666667  1
  Mn  Mn83  1  0.33333333  0.16666667  0.83333333  1
  Mn  Mn84  1  0.33333333  0.33333333  0.00000000  1
  Mn  Mn85  1  0.33333333  0.33333333  0.16666667  1
  Mn  Mn86  1  0.33333333  0.33333333  0.33333333  1
  Ni  Ni87  1  0.33333333  0.33333333  0.50000000  1
  Mn  Mn88  1  0.33333333  0.33333333  0.66666667  1
  Mn  Mn89  1  0.33333333  0.33333333  0.83333333  1
  Ni  Ni90  1  0.33333333  0.50000000  0.00000000  1
  Ni  Ni91  1  0.33333333  0.50000000  0.16666667  1
  Mn  Mn92  1  0.33333333  0.50000000  0.33333333  1
  Ni  Ni93  1  0.33333333  0.50000000  0.50000000  1
  Mn  Mn94  1  0.33333333  0.50000000  0.66666667  1
  Mn  Mn95  1  0.33333333  0.50000000  0.83333333  1
  Ni  Ni96  1  0.33333333  0.66666667  0.00000000  1
  Ni  Ni97  1  0.33333333  0.66666667  0.16666667  1
  Mn  Mn98  1  0.33333333  0.66666667  0.33333333  1
  Ni  Ni99  1  0.33333333  0.66666667  0.50000000  1
  Mn  Mn100  1  0.33333333  0.66666667  0.66666667  1
  Mn  Mn101  1  0.33333333  0.66666667  0.83333333  1
  Ni  Ni102  1  0.33333333  0.83333333  0.00000000  1
  Mn  Mn103  1  0.33333333  0.83333333  0.16666667  1
  Mn  Mn104  1  0.33333333  0.83333333  0.33333333  1
  Ni  Ni105  1  0.33333333  0.83333333  0.50000000  1
  Mn  Mn106  1  0.33333333  0.83333333  0.66666667  1
  Mn  Mn107  1  0.33333333  0.83333333  0.83333333  1
  Ni  Ni108  1  0.50000000  0.00000000  0.00000000  1
  Mn  Mn109  1  0.50000000  0.00000000  0.16666667  1
  Mn  Mn110  1  0.50000000  0.00000000  0.33333333  1
  Ni  Ni111  1  0.50000000  0.00000000  0.50000000  1
  Ni  Ni112  1  0.50000000  0.00000000  0.66666667  1
  Mn  Mn113  1  0.50000000  0.00000000  0.83333333  1
  Ni  Ni114  1  0.50000000  0.16666667  0.00000000  1
  Mn  Mn115  1  0.50000000  0.16666667  0.16666667  1
  Mn  Mn116  1  0.50000000  0.16666667  0.33333333  1
  Ni  Ni117  1  0.50000000  0.16666667  0.50000000  1
  Mn  Mn118  1  0.50000000  0.16666667  0.66666667  1
  Mn  Mn119  1  0.50000000  0.16666667  0.83333333  1
  Mn  Mn120  1  0.50000000  0.33333333  0.00000000  1
  Mn  Mn121  1  0.50000000  0.33333333  0.16666667  1
  Ni  Ni122  1  0.50000000  0.33333333  0.33333333  1
  Mn  Mn123  1  0.50000000  0.33333333  0.50000000  1
  Mn  Mn124  1  0.50000000  0.33333333  0.66666667  1
  Mn  Mn125  1  0.50000000  0.33333333  0.83333333  1
  Mn  Mn126  1  0.50000000  0.50000000  0.00000000  1
  Mn  Mn127  1  0.50000000  0.50000000  0.16666667  1
  Mn  Mn128  1  0.50000000  0.50000000  0.33333333  1
  Mn  Mn129  1  0.50000000  0.50000000  0.50000000  1
  Mn  Mn130  1  0.50000000  0.50000000  0.66666667  1
  Ni  Ni131  1  0.50000000  0.50000000  0.83333333  1
  Mn  Mn132  1  0.50000000  0.66666667  0.00000000  1
  Ni  Ni133  1  0.50000000  0.66666667  0.16666667  1
  Mn  Mn134  1  0.50000000  0.66666667  0.33333333  1
  Ni  Ni135  1  0.50000000  0.66666667  0.50000000  1
  Mn  Mn136  1  0.50000000  0.66666667  0.66666667  1
  Mn  Mn137  1  0.50000000  0.66666667  0.83333333  1
  Mn  Mn138  1  0.50000000  0.83333333  0.00000000  1
  Mn  Mn139  1  0.50000000  0.83333333  0.16666667  1
  Ni  Ni140  1  0.50000000  0.83333333  0.33333333  1
  Mn  Mn141  1  0.50000000  0.83333333  0.50000000  1
  Mn  Mn142  1  0.50000000  0.83333333  0.66666667  1
  Mn  Mn143  1  0.50000000  0.83333333  0.83333333  1
  Mn  Mn144  1  0.66666667  0.00000000  0.00000000  1
  Ni  Ni145  1  0.66666667  0.00000000  0.16666667  1
  Mn  Mn146  1  0.66666667  0.00000000  0.33333333  1
  Mn  Mn147  1  0.66666667  0.00000000  0.50000000  1
  Mn  Mn148  1  0.66666667  0.00000000  0.66666667  1
  Mn  Mn149  1  0.66666667  0.00000000  0.83333333  1
  Mn  Mn150  1  0.66666667  0.16666667  0.00000000  1
  Mn  Mn151  1  0.66666667  0.16666667  0.16666667  1
  Ni  Ni152  1  0.66666667  0.16666667  0.33333333  1
  Mn  Mn153  1  0.66666667  0.16666667  0.50000000  1
  Ni  Ni154  1  0.66666667  0.16666667  0.66666667  1
  Ni  Ni155  1  0.66666667  0.16666667  0.83333333  1
  Mn  Mn156  1  0.66666667  0.33333333  0.00000000  1
  Ni  Ni157  1  0.66666667  0.33333333  0.16666667  1
  Mn  Mn158  1  0.66666667  0.33333333  0.33333333  1
  Ni  Ni159  1  0.66666667  0.33333333  0.50000000  1
  Mn  Mn160  1  0.66666667  0.33333333  0.66666667  1
  Mn  Mn161  1  0.66666667  0.33333333  0.83333333  1
  Ni  Ni162  1  0.66666667  0.50000000  0.00000000  1
  Mn  Mn163  1  0.66666667  0.50000000  0.16666667  1
  Mn  Mn164  1  0.66666667  0.50000000  0.33333333  1
  Ni  Ni165  1  0.66666667  0.50000000  0.50000000  1
  Mn  Mn166  1  0.66666667  0.50000000  0.66666667  1
  Ni  Ni167  1  0.66666667  0.50000000  0.83333333  1
  Mn  Mn168  1  0.66666667  0.66666667  0.00000000  1
  Mn  Mn169  1  0.66666667  0.66666667  0.16666667  1
  Ni  Ni170  1  0.66666667  0.66666667  0.33333333  1
  Mn  Mn171  1  0.66666667  0.66666667  0.50000000  1
  Mn  Mn172  1  0.66666667  0.66666667  0.66666667  1
  Ni  Ni173  1  0.66666667  0.66666667  0.83333333  1
  Ni  Ni174  1  0.66666667  0.83333333  0.00000000  1
  Mn  Mn175  1  0.66666667  0.83333333  0.16666667  1
  Ni  Ni176  1  0.66666667  0.83333333  0.33333333  1
  Ni  Ni177  1  0.66666667  0.83333333  0.50000000  1
  Mn  Mn178  1  0.66666667  0.83333333  0.66666667  1
  Ni  Ni179  1  0.66666667  0.83333333  0.83333333  1
  Mn  Mn180  1  0.83333333  0.00000000  0.00000000  1
  Mn  Mn181  1  0.83333333  0.00000000  0.16666667  1
  Ni  Ni182  1  0.83333333  0.00000000  0.33333333  1
  Ni  Ni183  1  0.83333333  0.00000000  0.50000000  1
  Mn  Mn184  1  0.83333333  0.00000000  0.66666667  1
  Ni  Ni185  1  0.83333333  0.00000000  0.83333333  1
  Ni  Ni186  1  0.83333333  0.16666667  0.00000000  1
  Mn  Mn187  1  0.83333333  0.16666667  0.16666667  1
  Mn  Mn188  1  0.83333333  0.16666667  0.33333333  1
  Mn  Mn189  1  0.83333333  0.16666667  0.50000000  1
  Ni  Ni190  1  0.83333333  0.16666667  0.66666667  1
  Mn  Mn191  1  0.83333333  0.16666667  0.83333333  1
  Ni  Ni192  1  0.83333333  0.33333333  0.00000000  1
  Ni  Ni193  1  0.83333333  0.33333333  0.16666667  1
  Mn  Mn194  1  0.83333333  0.33333333  0.33333333  1
  Ni  Ni195  1  0.83333333  0.33333333  0.50000000  1
  Ni  Ni196  1  0.83333333  0.33333333  0.66666667  1
  Ni  Ni197  1  0.83333333  0.33333333  0.83333333  1
  Mn  Mn198  1  0.83333333  0.50000000  0.00000000  1
  Mn  Mn199  1  0.83333333  0.50000000  0.16666667  1
  Ni  Ni200  1  0.83333333  0.50000000  0.33333333  1
  Mn  Mn201  1  0.83333333  0.50000000  0.50000000  1
  Ni  Ni202  1  0.83333333  0.50000000  0.66666667  1
  Ni  Ni203  1  0.83333333  0.50000000  0.83333333  1
  Ni  Ni204  1  0.83333333  0.66666667  0.00000000  1
  Mn  Mn205  1  0.83333333  0.66666667  0.16666667  1
  Mn  Mn206  1  0.83333333  0.66666667  0.33333333  1
  Ni  Ni207  1  0.83333333  0.66666667  0.50000000  1
  Mn  Mn208  1  0.83333333  0.66666667  0.66666667  1
  Ni  Ni209  1  0.83333333  0.66666667  0.83333333  1
  Mn  Mn210  1  0.83333333  0.83333333  0.00000000  1
  Mn  Mn211  1  0.83333333  0.83333333  0.16666667  1
  Mn  Mn212  1  0.83333333  0.83333333  0.33333333  1
  Mn  Mn213  1  0.83333333  0.83333333  0.50000000  1
  Mn  Mn214  1  0.83333333  0.83333333  0.66666667  1
  Ni  Ni215  1  0.83333333  0.83333333  0.83333333  1
  Ni  Ni216  1  0.00000000  0.00000000  0.08333333  1
  Ni  Ni217  1  0.00000000  0.00000000  0.25000000  1
  Ni  Ni218  1  0.00000000  0.00000000  0.41666667  1
  Mn  Mn219  1  0.00000000  0.00000000  0.58333333  1
  Ni  Ni220  1  0.00000000  0.00000000  0.75000000  1
  Mn  Mn221  1  0.00000000  0.00000000  0.91666667  1
  Ni  Ni222  1  0.00000000  0.16666667  0.08333333  1
  Ni  Ni223  1  0.00000000  0.16666667  0.25000000  1
  Mn  Mn224  1  0.00000000  0.16666667  0.41666667  1
  Mn  Mn225  1  0.00000000  0.16666667  0.58333333  1
  Ni  Ni226  1  0.00000000  0.16666667  0.75000000  1
  Mn  Mn227  1  0.00000000  0.16666667  0.91666667  1
  Ni  Ni228  1  0.00000000  0.33333333  0.08333333  1
  Ni  Ni229  1  0.00000000  0.33333333  0.25000000  1
  Ni  Ni230  1  0.00000000  0.33333333  0.41666667  1
  Mn  Mn231  1  0.00000000  0.33333333  0.58333333  1
  Mn  Mn232  1  0.00000000  0.33333333  0.75000000  1
  Ni  Ni233  1  0.00000000  0.33333333  0.91666667  1
  Ni  Ni234  1  0.00000000  0.50000000  0.08333333  1
  Mn  Mn235  1  0.00000000  0.50000000  0.25000000  1
  Mn  Mn236  1  0.00000000  0.50000000  0.41666667  1
  Ni  Ni237  1  0.00000000  0.50000000  0.58333333  1
  Ni  Ni238  1  0.00000000  0.50000000  0.75000000  1
  Ni  Ni239  1  0.00000000  0.50000000  0.91666667  1
  Mn  Mn240  1  0.00000000  0.66666667  0.08333333  1
  Ni  Ni241  1  0.00000000  0.66666667  0.25000000  1
  Ni  Ni242  1  0.00000000  0.66666667  0.41666667  1
  Ni  Ni243  1  0.00000000  0.66666667  0.58333333  1
  Ni  Ni244  1  0.00000000  0.66666667  0.75000000  1
  Ni  Ni245  1  0.00000000  0.66666667  0.91666667  1
  Ni  Ni246  1  0.00000000  0.83333333  0.08333333  1
  Ni  Ni247  1  0.00000000  0.83333333  0.25000000  1
  Ni  Ni248  1  0.00000000  0.83333333  0.41666667  1
  Mn  Mn249  1  0.00000000  0.83333333  0.58333333  1
  Ni  Ni250  1  0.00000000  0.83333333  0.75000000  1
  Mn  Mn251  1  0.00000000  0.83333333  0.91666667  1
  Mn  Mn252  1  0.16666667  0.00000000  0.08333333  1
  Ni  Ni253  1  0.16666667  0.00000000  0.25000000  1
  Mn  Mn254  1  0.16666667  0.00000000  0.41666667  1
  Ni  Ni255  1  0.16666667  0.00000000  0.58333333  1
  Mn  Mn256  1  0.16666667  0.00000000  0.75000000  1
  Mn  Mn257  1  0.16666667  0.00000000  0.91666667  1
  Ni  Ni258  1  0.16666667  0.16666667  0.08333333  1
  Ni  Ni259  1  0.16666667  0.16666667  0.25000000  1
  Mn  Mn260  1  0.16666667  0.16666667  0.41666667  1
  Mn  Mn261  1  0.16666667  0.16666667  0.58333333  1
  Ni  Ni262  1  0.16666667  0.16666667  0.75000000  1
  Ni  Ni263  1  0.16666667  0.16666667  0.91666667  1
  Mn  Mn264  1  0.16666667  0.33333333  0.08333333  1
  Mn  Mn265  1  0.16666667  0.33333333  0.25000000  1
  Mn  Mn266  1  0.16666667  0.33333333  0.41666667  1
  Ni  Ni267  1  0.16666667  0.33333333  0.58333333  1
  Mn  Mn268  1  0.16666667  0.33333333  0.75000000  1
  Ni  Ni269  1  0.16666667  0.33333333  0.91666667  1
  Mn  Mn270  1  0.16666667  0.50000000  0.08333333  1
  Mn  Mn271  1  0.16666667  0.50000000  0.25000000  1
  Ni  Ni272  1  0.16666667  0.50000000  0.41666667  1
  Mn  Mn273  1  0.16666667  0.50000000  0.58333333  1
  Ni  Ni274  1  0.16666667  0.50000000  0.75000000  1
  Mn  Mn275  1  0.16666667  0.50000000  0.91666667  1
  Mn  Mn276  1  0.16666667  0.66666667  0.08333333  1
  Mn  Mn277  1  0.16666667  0.66666667  0.25000000  1
  Mn  Mn278  1  0.16666667  0.66666667  0.41666667  1
  Mn  Mn279  1  0.16666667  0.66666667  0.58333333  1
  Mn  Mn280  1  0.16666667  0.66666667  0.75000000  1
  Ni  Ni281  1  0.16666667  0.66666667  0.91666667  1
  Mn  Mn282  1  0.16666667  0.83333333  0.08333333  1
  Mn  Mn283  1  0.16666667  0.83333333  0.25000000  1
  Ni  Ni284  1  0.16666667  0.83333333  0.41666667  1
  Mn  Mn285  1  0.16666667  0.83333333  0.58333333  1
  Mn  Mn286  1  0.16666667  0.83333333  0.75000000  1
  Mn  Mn287  1  0.16666667  0.83333333  0.91666667  1
  Mn  Mn288  1  0.33333333  0.00000000  0.08333333  1
  Mn  Mn289  1  0.33333333  0.00000000  0.25000000  1
  Ni  Ni290  1  0.33333333  0.00000000  0.41666667  1
  Ni  Ni291  1  0.33333333  0.00000000  0.58333333  1
  Mn  Mn292  1  0.33333333  0.00000000  0.75000000  1
  Mn  Mn293  1  0.33333333  0.00000000  0.91666667  1
  Ni  Ni294  1  0.33333333  0.16666667  0.08333333  1
  Ni  Ni295  1  0.33333333  0.16666667  0.25000000  1
  Mn  Mn296  1  0.33333333  0.16666667  0.41666667  1
  Ni  Ni297  1  0.33333333  0.16666667  0.58333333  1
  Mn  Mn298  1  0.33333333  0.16666667  0.75000000  1
  Mn  Mn299  1  0.33333333  0.16666667  0.91666667  1
  Mn  Mn300  1  0.33333333  0.33333333  0.08333333  1
  Mn  Mn301  1  0.33333333  0.33333333  0.25000000  1
  Ni  Ni302  1  0.33333333  0.33333333  0.41666667  1
  Mn  Mn303  1  0.33333333  0.33333333  0.58333333  1
  Mn  Mn304  1  0.33333333  0.33333333  0.75000000  1
  Mn  Mn305  1  0.33333333  0.33333333  0.91666667  1
  Mn  Mn306  1  0.33333333  0.50000000  0.08333333  1
  Ni  Ni307  1  0.33333333  0.50000000  0.25000000  1
  Ni  Ni308  1  0.33333333  0.50000000  0.41666667  1
  Mn  Mn309  1  0.33333333  0.50000000  0.58333333  1
  Mn  Mn310  1  0.33333333  0.50000000  0.75000000  1
  Mn  Mn311  1  0.33333333  0.50000000  0.91666667  1
  Mn  Mn312  1  0.33333333  0.66666667  0.08333333  1
  Ni  Ni313  1  0.33333333  0.66666667  0.25000000  1
  Mn  Mn314  1  0.33333333  0.66666667  0.41666667  1
  Mn  Mn315  1  0.33333333  0.66666667  0.58333333  1
  Mn  Mn316  1  0.33333333  0.66666667  0.75000000  1
  Mn  Mn317  1  0.33333333  0.66666667  0.91666667  1
  Mn  Mn318  1  0.33333333  0.83333333  0.08333333  1
  Mn  Mn319  1  0.33333333  0.83333333  0.25000000  1
  Ni  Ni320  1  0.33333333  0.83333333  0.41666667  1
  Ni  Ni321  1  0.33333333  0.83333333  0.58333333  1
  Ni  Ni322  1  0.33333333  0.83333333  0.75000000  1
  Ni  Ni323  1  0.33333333  0.83333333  0.91666667  1
  Mn  Mn324  1  0.50000000  0.00000000  0.08333333  1
  Mn  Mn325  1  0.50000000  0.00000000  0.25000000  1
  Ni  Ni326  1  0.50000000  0.00000000  0.41666667  1
  Mn  Mn327  1  0.50000000  0.00000000  0.58333333  1
  Mn  Mn328  1  0.50000000  0.00000000  0.75000000  1
  Ni  Ni329  1  0.50000000  0.00000000  0.91666667  1
  Mn  Mn330  1  0.50000000  0.16666667  0.08333333  1
  Mn  Mn331  1  0.50000000  0.16666667  0.25000000  1
  Mn  Mn332  1  0.50000000  0.16666667  0.41666667  1
  Mn  Mn333  1  0.50000000  0.16666667  0.58333333  1
  Ni  Ni334  1  0.50000000  0.16666667  0.75000000  1
  Ni  Ni335  1  0.50000000  0.16666667  0.91666667  1
  Ni  Ni336  1  0.50000000  0.33333333  0.08333333  1
  Mn  Mn337  1  0.50000000  0.33333333  0.25000000  1
  Mn  Mn338  1  0.50000000  0.33333333  0.41666667  1
  Mn  Mn339  1  0.50000000  0.33333333  0.58333333  1
  Mn  Mn340  1  0.50000000  0.33333333  0.75000000  1
  Mn  Mn341  1  0.50000000  0.33333333  0.91666667  1
  Ni  Ni342  1  0.50000000  0.50000000  0.08333333  1
  Mn  Mn343  1  0.50000000  0.50000000  0.25000000  1
  Ni  Ni344  1  0.50000000  0.50000000  0.41666667  1
  Ni  Ni345  1  0.50000000  0.50000000  0.58333333  1
  Mn  Mn346  1  0.50000000  0.50000000  0.75000000  1
  Mn  Mn347  1  0.50000000  0.50000000  0.91666667  1
  Ni  Ni348  1  0.50000000  0.66666667  0.08333333  1
  Mn  Mn349  1  0.50000000  0.66666667  0.25000000  1
  Mn  Mn350  1  0.50000000  0.66666667  0.41666667  1
  Ni  Ni351  1  0.50000000  0.66666667  0.58333333  1
  Mn  Mn352  1  0.50000000  0.66666667  0.75000000  1
  Mn  Mn353  1  0.50000000  0.66666667  0.91666667  1
  Mn  Mn354  1  0.50000000  0.83333333  0.08333333  1
  Mn  Mn355  1  0.50000000  0.83333333  0.25000000  1
  Mn  Mn356  1  0.50000000  0.83333333  0.41666667  1
  Ni  Ni357  1  0.50000000  0.83333333  0.58333333  1
  Mn  Mn358  1  0.50000000  0.83333333  0.75000000  1
  Mn  Mn359  1  0.50000000  0.83333333  0.91666667  1
  Ni  Ni360  1  0.66666667  0.00000000  0.08333333  1
  Mn  Mn361  1  0.66666667  0.00000000  0.25000000  1
  Ni  Ni362  1  0.66666667  0.00000000  0.41666667  1
  Mn  Mn363  1  0.66666667  0.00000000  0.58333333  1
  Mn  Mn364  1  0.66666667  0.00000000  0.75000000  1
  Ni  Ni365  1  0.66666667  0.00000000  0.91666667  1
  Mn  Mn366  1  0.66666667  0.16666667  0.08333333  1
  Mn  Mn367  1  0.66666667  0.16666667  0.25000000  1
  Mn  Mn368  1  0.66666667  0.16666667  0.41666667  1
  Mn  Mn369  1  0.66666667  0.16666667  0.58333333  1
  Mn  Mn370  1  0.66666667  0.16666667  0.75000000  1
  Mn  Mn371  1  0.66666667  0.16666667  0.91666667  1
  Mn  Mn372  1  0.66666667  0.33333333  0.08333333  1
  Mn  Mn373  1  0.66666667  0.33333333  0.25000000  1
  Mn  Mn374  1  0.66666667  0.33333333  0.41666667  1
  Mn  Mn375  1  0.66666667  0.33333333  0.58333333  1
  Mn  Mn376  1  0.66666667  0.33333333  0.75000000  1
  Mn  Mn377  1  0.66666667  0.33333333  0.91666667  1
  Ni  Ni378  1  0.66666667  0.50000000  0.08333333  1
  Ni  Ni379  1  0.66666667  0.50000000  0.25000000  1
  Mn  Mn380  1  0.66666667  0.50000000  0.41666667  1
  Mn  Mn381  1  0.66666667  0.50000000  0.58333333  1
  Ni  Ni382  1  0.66666667  0.50000000  0.75000000  1
  Mn  Mn383  1  0.66666667  0.50000000  0.91666667  1
  Mn  Mn384  1  0.66666667  0.66666667  0.08333333  1
  Ni  Ni385  1  0.66666667  0.66666667  0.25000000  1
  Ni  Ni386  1  0.66666667  0.66666667  0.41666667  1
  Mn  Mn387  1  0.66666667  0.66666667  0.58333333  1
  Mn  Mn388  1  0.66666667  0.66666667  0.75000000  1
  Ni  Ni389  1  0.66666667  0.66666667  0.91666667  1
  Mn  Mn390  1  0.66666667  0.83333333  0.08333333  1
  Mn  Mn391  1  0.66666667  0.83333333  0.25000000  1
  Mn  Mn392  1  0.66666667  0.83333333  0.41666667  1
  Ni  Ni393  1  0.66666667  0.83333333  0.58333333  1
  Ni  Ni394  1  0.66666667  0.83333333  0.75000000  1
  Ni  Ni395  1  0.66666667  0.83333333  0.91666667  1
  Ni  Ni396  1  0.83333333  0.00000000  0.08333333  1
  Mn  Mn397  1  0.83333333  0.00000000  0.25000000  1
  Mn  Mn398  1  0.83333333  0.00000000  0.41666667  1
  Mn  Mn399  1  0.83333333  0.00000000  0.58333333  1
  Mn  Mn400  1  0.83333333  0.00000000  0.75000000  1
  Ni  Ni401  1  0.83333333  0.00000000  0.91666667  1
  Mn  Mn402  1  0.83333333  0.16666667  0.08333333  1
  Ni  Ni403  1  0.83333333  0.16666667  0.25000000  1
  Ni  Ni404  1  0.83333333  0.16666667  0.41666667  1
  Mn  Mn405  1  0.83333333  0.16666667  0.58333333  1
  Mn  Mn406  1  0.83333333  0.16666667  0.75000000  1
  Ni  Ni407  1  0.83333333  0.16666667  0.91666667  1
  Mn  Mn408  1  0.83333333  0.33333333  0.08333333  1
  Ni  Ni409  1  0.83333333  0.33333333  0.25000000  1
  Ni  Ni410  1  0.83333333  0.33333333  0.41666667  1
  Mn  Mn411  1  0.83333333  0.33333333  0.58333333  1
  Mn  Mn412  1  0.83333333  0.33333333  0.75000000  1
  Mn  Mn413  1  0.83333333  0.33333333  0.91666667  1
  Mn  Mn414  1  0.83333333  0.50000000  0.08333333  1
  Ni  Ni415  1  0.83333333  0.50000000  0.25000000  1
  Mn  Mn416  1  0.83333333  0.50000000  0.41666667  1
  Ni  Ni417  1  0.83333333  0.50000000  0.58333333  1
  Mn  Mn418  1  0.83333333  0.50000000  0.75000000  1
  Ni  Ni419  1  0.83333333  0.50000000  0.91666667  1
  Ni  Ni420  1  0.83333333  0.66666667  0.08333333  1
  Ni  Ni421  1  0.83333333  0.66666667  0.25000000  1
  Ni  Ni422  1  0.83333333  0.66666667  0.41666667  1
  Ni  Ni423  1  0.83333333  0.66666667  0.58333333  1
  Mn  Mn424  1  0.83333333  0.66666667  0.75000000  1
  Mn  Mn425  1  0.83333333  0.66666667  0.91666667  1
  Mn  Mn426  1  0.83333333  0.83333333  0.08333333  1
  Ni  Ni427  1  0.83333333  0.83333333  0.25000000  1
  Ni  Ni428  1  0.83333333  0.83333333  0.41666667  1
  Mn  Mn429  1  0.83333333  0.83333333  0.58333333  1
  Mn  Mn430  1  0.83333333  0.83333333  0.75000000  1
  Mn  Mn431  1  0.83333333  0.83333333  0.91666667  1
  As  As432  1  0.05555555  0.11111111  0.04166667  1
  As  As433  1  0.05555555  0.11111111  0.20833333  1
  As  As434  1  0.05555555  0.11111111  0.37500000  1
  As  As435  1  0.05555555  0.11111111  0.54166667  1
  As  As436  1  0.05555555  0.11111111  0.70833333  1
  As  As437  1  0.05555555  0.11111111  0.87500000  1
  As  As438  1  0.05555555  0.27777778  0.04166667  1
  As  As439  1  0.05555555  0.27777778  0.20833333  1
  As  As440  1  0.05555555  0.27777778  0.37500000  1
  As  As441  1  0.05555555  0.27777778  0.54166667  1
  As  As442  1  0.05555555  0.27777778  0.70833333  1
  As  As443  1  0.05555555  0.27777778  0.87500000  1
  As  As444  1  0.05555556  0.44444445  0.04166667  1
  As  As445  1  0.05555556  0.44444445  0.20833333  1
  As  As446  1  0.05555556  0.44444445  0.37500000  1
  As  As447  1  0.05555556  0.44444445  0.54166667  1
  As  As448  1  0.05555556  0.44444445  0.70833333  1
  As  As449  1  0.05555556  0.44444445  0.87500000  1
  As  As450  1  0.05555555  0.61111111  0.04166667  1
  As  As451  1  0.05555555  0.61111111  0.20833333  1
  As  As452  1  0.05555555  0.61111111  0.37500000  1
  As  As453  1  0.05555555  0.61111111  0.54166667  1
  As  As454  1  0.05555555  0.61111111  0.70833333  1
  As  As455  1  0.05555555  0.61111111  0.87500000  1
  As  As456  1  0.05555556  0.77777778  0.04166667  1
  As  As457  1  0.05555556  0.77777778  0.20833333  1
  As  As458  1  0.05555556  0.77777778  0.37500000  1
  As  As459  1  0.05555556  0.77777778  0.54166667  1
  As  As460  1  0.05555556  0.77777778  0.70833333  1
  As  As461  1  0.05555556  0.77777778  0.87500000  1
  As  As462  1  0.05555556  0.94444445  0.04166667  1
  As  As463  1  0.05555556  0.94444445  0.20833333  1
  As  As464  1  0.05555556  0.94444445  0.37500000  1
  As  As465  1  0.05555556  0.94444445  0.54166667  1
  As  As466  1  0.05555556  0.94444445  0.70833333  1
  As  As467  1  0.05555556  0.94444445  0.87500000  1
  As  As468  1  0.22222222  0.11111111  0.04166667  1
  As  As469  1  0.22222222  0.11111111  0.20833333  1
  As  As470  1  0.22222222  0.11111111  0.37500000  1
  As  As471  1  0.22222222  0.11111111  0.54166667  1
  As  As472  1  0.22222222  0.11111111  0.70833333  1
  As  As473  1  0.22222222  0.11111111  0.87500000  1
  As  As474  1  0.22222222  0.27777778  0.04166667  1
  As  As475  1  0.22222222  0.27777778  0.20833333  1
  As  As476  1  0.22222222  0.27777778  0.37500000  1
  As  As477  1  0.22222222  0.27777778  0.54166667  1
  As  As478  1  0.22222222  0.27777778  0.70833333  1
  As  As479  1  0.22222222  0.27777778  0.87500000  1
  As  As480  1  0.22222222  0.44444445  0.04166667  1
  As  As481  1  0.22222222  0.44444445  0.20833333  1
  As  As482  1  0.22222222  0.44444445  0.37500000  1
  As  As483  1  0.22222222  0.44444445  0.54166667  1
  As  As484  1  0.22222222  0.44444445  0.70833333  1
  As  As485  1  0.22222222  0.44444445  0.87500000  1
  As  As486  1  0.22222222  0.61111111  0.04166667  1
  As  As487  1  0.22222222  0.61111111  0.20833333  1
  As  As488  1  0.22222222  0.61111111  0.37500000  1
  As  As489  1  0.22222222  0.61111111  0.54166667  1
  As  As490  1  0.22222222  0.61111111  0.70833333  1
  As  As491  1  0.22222222  0.61111111  0.87500000  1
  As  As492  1  0.22222222  0.77777778  0.04166667  1
  As  As493  1  0.22222222  0.77777778  0.20833333  1
  As  As494  1  0.22222222  0.77777778  0.37500000  1
  As  As495  1  0.22222222  0.77777778  0.54166667  1
  As  As496  1  0.22222222  0.77777778  0.70833333  1
  As  As497  1  0.22222222  0.77777778  0.87500000  1
  As  As498  1  0.22222222  0.94444445  0.04166667  1
  As  As499  1  0.22222222  0.94444445  0.20833333  1
  As  As500  1  0.22222222  0.94444445  0.37500000  1
  As  As501  1  0.22222222  0.94444445  0.54166667  1
  As  As502  1  0.22222222  0.94444445  0.70833333  1
  As  As503  1  0.22222222  0.94444445  0.87500000  1
  As  As504  1  0.38888889  0.11111111  0.04166667  1
  As  As505  1  0.38888889  0.11111111  0.20833333  1
  As  As506  1  0.38888889  0.11111111  0.37500000  1
  As  As507  1  0.38888889  0.11111111  0.54166667  1
  As  As508  1  0.38888889  0.11111111  0.70833333  1
  As  As509  1  0.38888889  0.11111111  0.87500000  1
  As  As510  1  0.38888889  0.27777778  0.04166667  1
  As  As511  1  0.38888889  0.27777778  0.20833333  1
  As  As512  1  0.38888889  0.27777778  0.37500000  1
  As  As513  1  0.38888889  0.27777778  0.54166667  1
  As  As514  1  0.38888889  0.27777778  0.70833333  1
  As  As515  1  0.38888889  0.27777778  0.87500000  1
  As  As516  1  0.38888889  0.44444445  0.04166667  1
  As  As517  1  0.38888889  0.44444445  0.20833333  1
  As  As518  1  0.38888889  0.44444445  0.37500000  1
  As  As519  1  0.38888889  0.44444445  0.54166667  1
  As  As520  1  0.38888889  0.44444445  0.70833333  1
  As  As521  1  0.38888889  0.44444445  0.87500000  1
  As  As522  1  0.38888889  0.61111111  0.04166667  1
  As  As523  1  0.38888889  0.61111111  0.20833333  1
  As  As524  1  0.38888889  0.61111111  0.37500000  1
  As  As525  1  0.38888889  0.61111111  0.54166667  1
  As  As526  1  0.38888889  0.61111111  0.70833333  1
  As  As527  1  0.38888889  0.61111111  0.87500000  1
  As  As528  1  0.38888889  0.77777778  0.04166667  1
  As  As529  1  0.38888889  0.77777778  0.20833333  1
  As  As530  1  0.38888889  0.77777778  0.37500000  1
  As  As531  1  0.38888889  0.77777778  0.54166667  1
  As  As532  1  0.38888889  0.77777778  0.70833333  1
  As  As533  1  0.38888889  0.77777778  0.87500000  1
  As  As534  1  0.38888889  0.94444445  0.04166667  1
  As  As535  1  0.38888889  0.94444445  0.20833333  1
  As  As536  1  0.38888889  0.94444445  0.37500000  1
  As  As537  1  0.38888889  0.94444445  0.54166667  1
  As  As538  1  0.38888889  0.94444445  0.70833333  1
  As  As539  1  0.38888889  0.94444445  0.87500000  1
  As  As540  1  0.55555555  0.11111111  0.04166667  1
  As  As541  1  0.55555555  0.11111111  0.20833333  1
  As  As542  1  0.55555555  0.11111111  0.37500000  1
  As  As543  1  0.55555555  0.11111111  0.54166667  1
  As  As544  1  0.55555555  0.11111111  0.70833333  1
  As  As545  1  0.55555555  0.11111111  0.87500000  1
  As  As546  1  0.55555555  0.27777778  0.04166667  1
  As  As547  1  0.55555555  0.27777778  0.20833333  1
  As  As548  1  0.55555555  0.27777778  0.37500000  1
  As  As549  1  0.55555555  0.27777778  0.54166667  1
  As  As550  1  0.55555555  0.27777778  0.70833333  1
  As  As551  1  0.55555555  0.27777778  0.87500000  1
  As  As552  1  0.55555555  0.44444445  0.04166667  1
  As  As553  1  0.55555555  0.44444445  0.20833333  1
  As  As554  1  0.55555555  0.44444445  0.37500000  1
  As  As555  1  0.55555555  0.44444445  0.54166667  1
  As  As556  1  0.55555555  0.44444445  0.70833333  1
  As  As557  1  0.55555555  0.44444445  0.87500000  1
  As  As558  1  0.55555555  0.61111111  0.04166667  1
  As  As559  1  0.55555555  0.61111111  0.20833333  1
  As  As560  1  0.55555555  0.61111111  0.37500000  1
  As  As561  1  0.55555555  0.61111111  0.54166667  1
  As  As562  1  0.55555555  0.61111111  0.70833333  1
  As  As563  1  0.55555555  0.61111111  0.87500000  1
  As  As564  1  0.55555555  0.77777778  0.04166667  1
  As  As565  1  0.55555555  0.77777778  0.20833333  1
  As  As566  1  0.55555555  0.77777778  0.37500000  1
  As  As567  1  0.55555555  0.77777778  0.54166667  1
  As  As568  1  0.55555555  0.77777778  0.70833333  1
  As  As569  1  0.55555555  0.77777778  0.87500000  1
  As  As570  1  0.55555555  0.94444445  0.04166667  1
  As  As571  1  0.55555555  0.94444445  0.20833333  1
  As  As572  1  0.55555555  0.94444445  0.37500000  1
  As  As573  1  0.55555555  0.94444445  0.54166667  1
  As  As574  1  0.55555555  0.94444445  0.70833333  1
  As  As575  1  0.55555555  0.94444445  0.87500000  1
  As  As576  1  0.72222222  0.11111111  0.04166667  1
  As  As577  1  0.72222222  0.11111111  0.20833333  1
  As  As578  1  0.72222222  0.11111111  0.37500000  1
  As  As579  1  0.72222222  0.11111111  0.54166667  1
  As  As580  1  0.72222222  0.11111111  0.70833333  1
  As  As581  1  0.72222222  0.11111111  0.87500000  1
  As  As582  1  0.72222222  0.27777778  0.04166667  1
  As  As583  1  0.72222222  0.27777778  0.20833333  1
  As  As584  1  0.72222222  0.27777778  0.37500000  1
  As  As585  1  0.72222222  0.27777778  0.54166667  1
  As  As586  1  0.72222222  0.27777778  0.70833333  1
  As  As587  1  0.72222222  0.27777778  0.87500000  1
  As  As588  1  0.72222222  0.44444445  0.04166667  1
  As  As589  1  0.72222222  0.44444445  0.20833333  1
  As  As590  1  0.72222222  0.44444445  0.37500000  1
  As  As591  1  0.72222222  0.44444445  0.54166667  1
  As  As592  1  0.72222222  0.44444445  0.70833333  1
  As  As593  1  0.72222222  0.44444445  0.87500000  1
  As  As594  1  0.72222222  0.61111111  0.04166667  1
  As  As595  1  0.72222222  0.61111111  0.20833333  1
  As  As596  1  0.72222222  0.61111111  0.37500000  1
  As  As597  1  0.72222222  0.61111111  0.54166667  1
  As  As598  1  0.72222222  0.61111111  0.70833333  1
  As  As599  1  0.72222222  0.61111111  0.87500000  1
  As  As600  1  0.72222222  0.77777778  0.04166667  1
  As  As601  1  0.72222222  0.77777778  0.20833333  1
  As  As602  1  0.72222222  0.77777778  0.37500000  1
  As  As603  1  0.72222222  0.77777778  0.54166667  1
  As  As604  1  0.72222222  0.77777778  0.70833333  1
  As  As605  1  0.72222222  0.77777778  0.87500000  1
  As  As606  1  0.72222222  0.94444445  0.04166667  1
  As  As607  1  0.72222222  0.94444445  0.20833333  1
  As  As608  1  0.72222222  0.94444445  0.37500000  1
  As  As609  1  0.72222222  0.94444445  0.54166667  1
  As  As610  1  0.72222222  0.94444445  0.70833333  1
  As  As611  1  0.72222222  0.94444445  0.87500000  1
  As  As612  1  0.88888889  0.11111111  0.04166667  1
  As  As613  1  0.88888889  0.11111111  0.20833333  1
  As  As614  1  0.88888889  0.11111111  0.37500000  1
  As  As615  1  0.88888889  0.11111111  0.54166667  1
  As  As616  1  0.88888889  0.11111111  0.70833333  1
  As  As617  1  0.88888889  0.11111111  0.87500000  1
  As  As618  1  0.88888889  0.27777778  0.04166667  1
  As  As619  1  0.88888889  0.27777778  0.20833333  1
  As  As620  1  0.88888889  0.27777778  0.37500000  1
  As  As621  1  0.88888889  0.27777778  0.54166667  1
  As  As622  1  0.88888889  0.27777778  0.70833333  1
  As  As623  1  0.88888889  0.27777778  0.87500000  1
  As  As624  1  0.88888889  0.44444445  0.04166667  1
  As  As625  1  0.88888889  0.44444445  0.20833333  1
  As  As626  1  0.88888889  0.44444445  0.37500000  1
  As  As627  1  0.88888889  0.44444445  0.54166667  1
  As  As628  1  0.88888889  0.44444445  0.70833333  1
  As  As629  1  0.88888889  0.44444445  0.87500000  1
  As  As630  1  0.88888889  0.61111111  0.04166667  1
  As  As631  1  0.88888889  0.61111111  0.20833333  1
  As  As632  1  0.88888889  0.61111111  0.37500000  1
  As  As633  1  0.88888889  0.61111111  0.54166667  1
  As  As634  1  0.88888889  0.61111111  0.70833333  1
  As  As635  1  0.88888889  0.61111111  0.87500000  1
  As  As636  1  0.88888889  0.77777778  0.04166667  1
  As  As637  1  0.88888889  0.77777778  0.20833333  1
  As  As638  1  0.88888889  0.77777778  0.37500000  1
  As  As639  1  0.88888889  0.77777778  0.54166667  1
  As  As640  1  0.88888889  0.77777778  0.70833333  1
  As  As641  1  0.88888889  0.77777778  0.87500000  1
  As  As642  1  0.88888889  0.94444445  0.04166667  1
  As  As643  1  0.88888889  0.94444445  0.20833333  1
  As  As644  1  0.88888889  0.94444445  0.37500000  1
  As  As645  1  0.88888889  0.94444445  0.54166667  1
  As  As646  1  0.88888889  0.94444445  0.70833333  1
  As  As647  1  0.88888889  0.94444445  0.87500000  1
  As  As648  1  0.11111111  0.05555555  0.12500000  1
  As  As649  1  0.11111111  0.05555555  0.29166667  1
  As  As650  1  0.11111111  0.05555555  0.45833333  1
  As  As651  1  0.11111111  0.05555555  0.62500000  1
  As  As652  1  0.11111111  0.05555555  0.79166667  1
  As  As653  1  0.11111111  0.05555555  0.95833333  1
  As  As654  1  0.11111111  0.22222222  0.12500000  1
  As  As655  1  0.11111111  0.22222222  0.29166667  1
  As  As656  1  0.11111111  0.22222222  0.45833333  1
  As  As657  1  0.11111111  0.22222222  0.62500000  1
  As  As658  1  0.11111111  0.22222222  0.79166667  1
  As  As659  1  0.11111111  0.22222222  0.95833333  1
  As  As660  1  0.11111111  0.38888889  0.12500000  1
  As  As661  1  0.11111111  0.38888889  0.29166667  1
  As  As662  1  0.11111111  0.38888889  0.45833333  1
  As  As663  1  0.11111111  0.38888889  0.62500000  1
  As  As664  1  0.11111111  0.38888889  0.79166667  1
  As  As665  1  0.11111111  0.38888889  0.95833333  1
  As  As666  1  0.11111111  0.55555556  0.12500000  1
  As  As667  1  0.11111111  0.55555556  0.29166667  1
  As  As668  1  0.11111111  0.55555556  0.45833333  1
  As  As669  1  0.11111111  0.55555556  0.62500000  1
  As  As670  1  0.11111111  0.55555556  0.79166667  1
  As  As671  1  0.11111111  0.55555556  0.95833333  1
  As  As672  1  0.11111111  0.72222222  0.12500000  1
  As  As673  1  0.11111111  0.72222222  0.29166667  1
  As  As674  1  0.11111111  0.72222222  0.45833333  1
  As  As675  1  0.11111111  0.72222222  0.62500000  1
  As  As676  1  0.11111111  0.72222222  0.79166667  1
  As  As677  1  0.11111111  0.72222222  0.95833333  1
  As  As678  1  0.11111111  0.88888889  0.12500000  1
  As  As679  1  0.11111111  0.88888889  0.29166667  1
  As  As680  1  0.11111111  0.88888889  0.45833333  1
  As  As681  1  0.11111111  0.88888889  0.62500000  1
  As  As682  1  0.11111111  0.88888889  0.79166667  1
  As  As683  1  0.11111111  0.88888889  0.95833333  1
  As  As684  1  0.27777778  0.05555555  0.12500000  1
  As  As685  1  0.27777778  0.05555555  0.29166667  1
  As  As686  1  0.27777778  0.05555555  0.45833333  1
  As  As687  1  0.27777778  0.05555555  0.62500000  1
  As  As688  1  0.27777778  0.05555555  0.79166667  1
  As  As689  1  0.27777778  0.05555555  0.95833333  1
  As  As690  1  0.27777778  0.22222222  0.12500000  1
  As  As691  1  0.27777778  0.22222222  0.29166667  1
  As  As692  1  0.27777778  0.22222222  0.45833333  1
  As  As693  1  0.27777778  0.22222222  0.62500000  1
  As  As694  1  0.27777778  0.22222222  0.79166667  1
  As  As695  1  0.27777778  0.22222222  0.95833333  1
  As  As696  1  0.27777778  0.38888889  0.12500000  1
  As  As697  1  0.27777778  0.38888889  0.29166667  1
  As  As698  1  0.27777778  0.38888889  0.45833333  1
  As  As699  1  0.27777778  0.38888889  0.62500000  1
  As  As700  1  0.27777778  0.38888889  0.79166667  1
  As  As701  1  0.27777778  0.38888889  0.95833333  1
  As  As702  1  0.27777778  0.55555556  0.12500000  1
  As  As703  1  0.27777778  0.55555556  0.29166667  1
  As  As704  1  0.27777778  0.55555556  0.45833333  1
  As  As705  1  0.27777778  0.55555556  0.62500000  1
  As  As706  1  0.27777778  0.55555556  0.79166667  1
  As  As707  1  0.27777778  0.55555556  0.95833333  1
  As  As708  1  0.27777778  0.72222222  0.12500000  1
  As  As709  1  0.27777778  0.72222222  0.29166667  1
  As  As710  1  0.27777778  0.72222222  0.45833333  1
  As  As711  1  0.27777778  0.72222222  0.62500000  1
  As  As712  1  0.27777778  0.72222222  0.79166667  1
  As  As713  1  0.27777778  0.72222222  0.95833333  1
  As  As714  1  0.27777778  0.88888889  0.12500000  1
  As  As715  1  0.27777778  0.88888889  0.29166667  1
  As  As716  1  0.27777778  0.88888889  0.45833333  1
  As  As717  1  0.27777778  0.88888889  0.62500000  1
  As  As718  1  0.27777778  0.88888889  0.79166667  1
  As  As719  1  0.27777778  0.88888889  0.95833333  1
  As  As720  1  0.44444445  0.05555555  0.12500000  1
  As  As721  1  0.44444445  0.05555555  0.29166667  1
  As  As722  1  0.44444445  0.05555555  0.45833333  1
  As  As723  1  0.44444445  0.05555555  0.62500000  1
  As  As724  1  0.44444445  0.05555555  0.79166667  1
  As  As725  1  0.44444445  0.05555555  0.95833333  1
  As  As726  1  0.44444444  0.22222222  0.12500000  1
  As  As727  1  0.44444444  0.22222222  0.29166667  1
  As  As728  1  0.44444444  0.22222222  0.45833333  1
  As  As729  1  0.44444444  0.22222222  0.62500000  1
  As  As730  1  0.44444444  0.22222222  0.79166667  1
  As  As731  1  0.44444444  0.22222222  0.95833333  1
  As  As732  1  0.44444444  0.38888889  0.12500000  1
  As  As733  1  0.44444444  0.38888889  0.29166667  1
  As  As734  1  0.44444444  0.38888889  0.45833333  1
  As  As735  1  0.44444444  0.38888889  0.62500000  1
  As  As736  1  0.44444444  0.38888889  0.79166667  1
  As  As737  1  0.44444444  0.38888889  0.95833333  1
  As  As738  1  0.44444444  0.55555556  0.12500000  1
  As  As739  1  0.44444444  0.55555556  0.29166667  1
  As  As740  1  0.44444444  0.55555556  0.45833333  1
  As  As741  1  0.44444444  0.55555556  0.62500000  1
  As  As742  1  0.44444444  0.55555556  0.79166667  1
  As  As743  1  0.44444444  0.55555556  0.95833333  1
  As  As744  1  0.44444445  0.72222222  0.12500000  1
  As  As745  1  0.44444445  0.72222222  0.29166667  1
  As  As746  1  0.44444445  0.72222222  0.45833333  1
  As  As747  1  0.44444445  0.72222222  0.62500000  1
  As  As748  1  0.44444445  0.72222222  0.79166667  1
  As  As749  1  0.44444445  0.72222222  0.95833333  1
  As  As750  1  0.44444444  0.88888889  0.12500000  1
  As  As751  1  0.44444444  0.88888889  0.29166667  1
  As  As752  1  0.44444444  0.88888889  0.45833333  1
  As  As753  1  0.44444444  0.88888889  0.62500000  1
  As  As754  1  0.44444444  0.88888889  0.79166667  1
  As  As755  1  0.44444444  0.88888889  0.95833333  1
  As  As756  1  0.61111111  0.05555555  0.12500000  1
  As  As757  1  0.61111111  0.05555555  0.29166667  1
  As  As758  1  0.61111111  0.05555555  0.45833333  1
  As  As759  1  0.61111111  0.05555555  0.62500000  1
  As  As760  1  0.61111111  0.05555555  0.79166667  1
  As  As761  1  0.61111111  0.05555555  0.95833333  1
  As  As762  1  0.61111111  0.22222222  0.12500000  1
  As  As763  1  0.61111111  0.22222222  0.29166667  1
  As  As764  1  0.61111111  0.22222222  0.45833333  1
  As  As765  1  0.61111111  0.22222222  0.62500000  1
  As  As766  1  0.61111111  0.22222222  0.79166667  1
  As  As767  1  0.61111111  0.22222222  0.95833333  1
  As  As768  1  0.61111111  0.38888889  0.12500000  1
  As  As769  1  0.61111111  0.38888889  0.29166667  1
  As  As770  1  0.61111111  0.38888889  0.45833333  1
  As  As771  1  0.61111111  0.38888889  0.62500000  1
  As  As772  1  0.61111111  0.38888889  0.79166667  1
  As  As773  1  0.61111111  0.38888889  0.95833333  1
  As  As774  1  0.61111111  0.55555556  0.12500000  1
  As  As775  1  0.61111111  0.55555556  0.29166667  1
  As  As776  1  0.61111111  0.55555556  0.45833333  1
  As  As777  1  0.61111111  0.55555556  0.62500000  1
  As  As778  1  0.61111111  0.55555556  0.79166667  1
  As  As779  1  0.61111111  0.55555556  0.95833333  1
  As  As780  1  0.61111111  0.72222222  0.12500000  1
  As  As781  1  0.61111111  0.72222222  0.29166667  1
  As  As782  1  0.61111111  0.72222222  0.45833333  1
  As  As783  1  0.61111111  0.72222222  0.62500000  1
  As  As784  1  0.61111111  0.72222222  0.79166667  1
  As  As785  1  0.61111111  0.72222222  0.95833333  1
  As  As786  1  0.61111111  0.88888889  0.12500000  1
  As  As787  1  0.61111111  0.88888889  0.29166667  1
  As  As788  1  0.61111111  0.88888889  0.45833333  1
  As  As789  1  0.61111111  0.88888889  0.62500000  1
  As  As790  1  0.61111111  0.88888889  0.79166667  1
  As  As791  1  0.61111111  0.88888889  0.95833333  1
  As  As792  1  0.77777778  0.05555555  0.12500000  1
  As  As793  1  0.77777778  0.05555555  0.29166667  1
  As  As794  1  0.77777778  0.05555555  0.45833333  1
  As  As795  1  0.77777778  0.05555555  0.62500000  1
  As  As796  1  0.77777778  0.05555555  0.79166667  1
  As  As797  1  0.77777778  0.05555555  0.95833333  1
  As  As798  1  0.77777778  0.22222222  0.12500000  1
  As  As799  1  0.77777778  0.22222222  0.29166667  1
  As  As800  1  0.77777778  0.22222222  0.45833333  1
  As  As801  1  0.77777778  0.22222222  0.62500000  1
  As  As802  1  0.77777778  0.22222222  0.79166667  1
  As  As803  1  0.77777778  0.22222222  0.95833333  1
  As  As804  1  0.77777778  0.38888889  0.12500000  1
  As  As805  1  0.77777778  0.38888889  0.29166667  1
  As  As806  1  0.77777778  0.38888889  0.45833333  1
  As  As807  1  0.77777778  0.38888889  0.62500000  1
  As  As808  1  0.77777778  0.38888889  0.79166667  1
  As  As809  1  0.77777778  0.38888889  0.95833333  1
  As  As810  1  0.77777778  0.55555556  0.12500000  1
  As  As811  1  0.77777778  0.55555556  0.29166667  1
  As  As812  1  0.77777778  0.55555556  0.45833333  1
  As  As813  1  0.77777778  0.55555556  0.62500000  1
  As  As814  1  0.77777778  0.55555556  0.79166667  1
  As  As815  1  0.77777778  0.55555556  0.95833333  1
  As  As816  1  0.77777778  0.72222222  0.12500000  1
  As  As817  1  0.77777778  0.72222222  0.29166667  1
  As  As818  1  0.77777778  0.72222222  0.45833333  1
  As  As819  1  0.77777778  0.72222222  0.62500000  1
  As  As820  1  0.77777778  0.72222222  0.79166667  1
  As  As821  1  0.77777778  0.72222222  0.95833333  1
  As  As822  1  0.77777778  0.88888889  0.12500000  1
  As  As823  1  0.77777778  0.88888889  0.29166667  1
  As  As824  1  0.77777778  0.88888889  0.45833333  1
  As  As825  1  0.77777778  0.88888889  0.62500000  1
  As  As826  1  0.77777778  0.88888889  0.79166667  1
  As  As827  1  0.77777778  0.88888889  0.95833333  1
  As  As828  1  0.94444444  0.05555555  0.12500000  1
  As  As829  1  0.94444444  0.05555555  0.29166667  1
  As  As830  1  0.94444444  0.05555555  0.45833333  1
  As  As831  1  0.94444444  0.05555555  0.62500000  1
  As  As832  1  0.94444444  0.05555555  0.79166667  1
  As  As833  1  0.94444444  0.05555555  0.95833333  1
  As  As834  1  0.94444444  0.22222222  0.12500000  1
  As  As835  1  0.94444444  0.22222222  0.29166667  1
  As  As836  1  0.94444444  0.22222222  0.45833333  1
  As  As837  1  0.94444444  0.22222222  0.62500000  1
  As  As838  1  0.94444444  0.22222222  0.79166667  1
  As  As839  1  0.94444444  0.22222222  0.95833333  1
  As  As840  1  0.94444444  0.38888889  0.12500000  1
  As  As841  1  0.94444444  0.38888889  0.29166667  1
  As  As842  1  0.94444444  0.38888889  0.45833333  1
  As  As843  1  0.94444444  0.38888889  0.62500000  1
  As  As844  1  0.94444444  0.38888889  0.79166667  1
  As  As845  1  0.94444444  0.38888889  0.95833333  1
  As  As846  1  0.94444445  0.55555556  0.12500000  1
  As  As847  1  0.94444445  0.55555556  0.29166667  1
  As  As848  1  0.94444445  0.55555556  0.45833333  1
  As  As849  1  0.94444445  0.55555556  0.62500000  1
  As  As850  1  0.94444445  0.55555556  0.79166667  1
  As  As851  1  0.94444445  0.55555556  0.95833333  1
  As  As852  1  0.94444444  0.72222222  0.12500000  1
  As  As853  1  0.94444444  0.72222222  0.29166667  1
  As  As854  1  0.94444444  0.72222222  0.45833333  1
  As  As855  1  0.94444444  0.72222222  0.62500000  1
  As  As856  1  0.94444444  0.72222222  0.79166667  1
  As  As857  1  0.94444444  0.72222222  0.95833333  1
  As  As858  1  0.94444444  0.88888889  0.12500000  1
  As  As859  1  0.94444444  0.88888889  0.29166667  1
  As  As860  1  0.94444444  0.88888889  0.45833333  1
  As  As861  1  0.94444444  0.88888889  0.62500000  1
  As  As862  1  0.94444444  0.88888889  0.79166667  1
  As  As863  1  0.94444444  0.88888889  0.95833333  1
