# generated using pymatgen
data_Mn253Ni259As512
_symmetry_space_group_name_H-M   'P 1'
_cell_length_a   29.16643240
_cell_length_b   29.16643240
_cell_length_c   40.36052800
_cell_angle_alpha   90.00000000
_cell_angle_beta   90.00000000
_cell_angle_gamma   120.00000000
_symmetry_Int_Tables_number   1
_chemical_formula_structural   Mn253Ni259As512
_chemical_formula_sum   'Mn506 Ni518 As1024'
_cell_volume   29734.05160598
_cell_formula_units_Z   2
loop_
 _symmetry_equiv_pos_site_id
 _symmetry_equiv_pos_as_xyz
  1  'x, y, z'
loop_
 _atom_site_type_symbol
 _atom_site_label
 _atom_site_symmetry_multiplicity
 _atom_site_fract_x
 _atom_site_fract_y
 _atom_site_fract_z
 _atom_site_occupancy
  Ni  Ni0  1  0.00000000  0.00000000  0.00000000  1
  Mn  Mn1  1  0.00000000  0.00000000  0.12500000  1
  Ni  Ni2  1  0.00000000  0.00000000  0.25000000  1
  Mn  Mn3  1  0.00000000  0.00000000  0.37500000  1
  Mn  Mn4  1  0.00000000  0.00000000  0.50000000  1
  Ni  Ni5  1  0.00000000  0.00000000  0.62500000  1
  Ni  Ni6  1  0.00000000  0.00000000  0.75000000  1
  Ni  Ni7  1  0.00000000  0.00000000  0.87500000  1
  Mn  Mn8  1  0.00000000  0.12500000  0.00000000  1
  Mn  Mn9  1  0.00000000  0.12500000  0.12500000  1
  Mn  Mn10  1  0.00000000  0.12500000  0.25000000  1
  Ni  Ni11  1  0.00000000  0.12500000  0.37500000  1
  Mn  Mn12  1  0.00000000  0.12500000  0.50000000  1
  Ni  Ni13  1  0.00000000  0.12500000  0.62500000  1
  Ni  Ni14  1  0.00000000  0.12500000  0.75000000  1
  Ni  Ni15  1  0.00000000  0.12500000  0.87500000  1
  Mn  Mn16  1  0.00000000  0.25000000  0.00000000  1
  Ni  Ni17  1  0.00000000  0.25000000  0.12500000  1
  Ni  Ni18  1  0.00000000  0.25000000  0.25000000  1
  Ni  Ni19  1  0.00000000  0.25000000  0.37500000  1
  Ni  Ni20  1  0.00000000  0.25000000  0.50000000  1
  Mn  Mn21  1  0.00000000  0.25000000  0.62500000  1
  Ni  Ni22  1  0.00000000  0.25000000  0.75000000  1
  Ni  Ni23  1  0.00000000  0.25000000  0.87500000  1
  Ni  Ni24  1  0.00000000  0.37500000  0.00000000  1
  Mn  Mn25  1  0.00000000  0.37500000  0.12500000  1
  Ni  Ni26  1  0.00000000  0.37500000  0.25000000  1
  Ni  Ni27  1  0.00000000  0.37500000  0.37500000  1
  Mn  Mn28  1  0.00000000  0.37500000  0.50000000  1
  Mn  Mn29  1  0.00000000  0.37500000  0.62500000  1
  Mn  Mn30  1  0.00000000  0.37500000  0.75000000  1
  Ni  Ni31  1  0.00000000  0.37500000  0.87500000  1
  Ni  Ni32  1  0.00000000  0.50000000  0.00000000  1
  Mn  Mn33  1  0.00000000  0.50000000  0.12500000  1
  Ni  Ni34  1  0.00000000  0.50000000  0.25000000  1
  Mn  Mn35  1  0.00000000  0.50000000  0.37500000  1
  Ni  Ni36  1  0.00000000  0.50000000  0.50000000  1
  Mn  Mn37  1  0.00000000  0.50000000  0.62500000  1
  Ni  Ni38  1  0.00000000  0.50000000  0.75000000  1
  Mn  Mn39  1  0.00000000  0.50000000  0.87500000  1
  Mn  Mn40  1  0.00000000  0.62500000  0.00000000  1
  Mn  Mn41  1  0.00000000  0.62500000  0.12500000  1
  Mn  Mn42  1  0.00000000  0.62500000  0.25000000  1
  Mn  Mn43  1  0.00000000  0.62500000  0.37500000  1
  Ni  Ni44  1  0.00000000  0.62500000  0.50000000  1
  Ni  Ni45  1  0.00000000  0.62500000  0.62500000  1
  Ni  Ni46  1  0.00000000  0.62500000  0.75000000  1
  Ni  Ni47  1  0.00000000  0.62500000  0.87500000  1
  Ni  Ni48  1  0.00000000  0.75000000  0.00000000  1
  Mn  Mn49  1  0.00000000  0.75000000  0.12500000  1
  Ni  Ni50  1  0.00000000  0.75000000  0.25000000  1
  Mn  Mn51  1  0.00000000  0.75000000  0.37500000  1
  Mn  Mn52  1  0.00000000  0.75000000  0.50000000  1
  Mn  Mn53  1  0.00000000  0.75000000  0.62500000  1
  Ni  Ni54  1  0.00000000  0.75000000  0.75000000  1
  Mn  Mn55  1  0.00000000  0.75000000  0.87500000  1
  Mn  Mn56  1  0.00000000  0.87500000  0.00000000  1
  Mn  Mn57  1  0.00000000  0.87500000  0.12500000  1
  Mn  Mn58  1  0.00000000  0.87500000  0.25000000  1
  Ni  Ni59  1  0.00000000  0.87500000  0.37500000  1
  Mn  Mn60  1  0.00000000  0.87500000  0.50000000  1
  Ni  Ni61  1  0.00000000  0.87500000  0.62500000  1
  Mn  Mn62  1  0.00000000  0.87500000  0.75000000  1
  Mn  Mn63  1  0.00000000  0.87500000  0.87500000  1
  Mn  Mn64  1  0.12500000  0.00000000  0.00000000  1
  Mn  Mn65  1  0.12500000  0.00000000  0.12500000  1
  Ni  Ni66  1  0.12500000  0.00000000  0.25000000  1
  Ni  Ni67  1  0.12500000  0.00000000  0.37500000  1
  Ni  Ni68  1  0.12500000  0.00000000  0.50000000  1
  Ni  Ni69  1  0.12500000  0.00000000  0.62500000  1
  Ni  Ni70  1  0.12500000  0.00000000  0.75000000  1
  Ni  Ni71  1  0.12500000  0.00000000  0.87500000  1
  Ni  Ni72  1  0.12500000  0.12500000  0.00000000  1
  Ni  Ni73  1  0.12500000  0.12500000  0.12500000  1
  Ni  Ni74  1  0.12500000  0.12500000  0.25000000  1
  Mn  Mn75  1  0.12500000  0.12500000  0.37500000  1
  Ni  Ni76  1  0.12500000  0.12500000  0.50000000  1
  Ni  Ni77  1  0.12500000  0.12500000  0.62500000  1
  Mn  Mn78  1  0.12500000  0.12500000  0.75000000  1
  Ni  Ni79  1  0.12500000  0.12500000  0.87500000  1
  Ni  Ni80  1  0.12500000  0.25000000  0.00000000  1
  Mn  Mn81  1  0.12500000  0.25000000  0.12500000  1
  Ni  Ni82  1  0.12500000  0.25000000  0.25000000  1
  Mn  Mn83  1  0.12500000  0.25000000  0.37500000  1
  Mn  Mn84  1  0.12500000  0.25000000  0.50000000  1
  Mn  Mn85  1  0.12500000  0.25000000  0.62500000  1
  Ni  Ni86  1  0.12500000  0.25000000  0.75000000  1
  Ni  Ni87  1  0.12500000  0.25000000  0.87500000  1
  Ni  Ni88  1  0.12500000  0.37500000  0.00000000  1
  Mn  Mn89  1  0.12500000  0.37500000  0.12500000  1
  Mn  Mn90  1  0.12500000  0.37500000  0.25000000  1
  Ni  Ni91  1  0.12500000  0.37500000  0.37500000  1
  Mn  Mn92  1  0.12500000  0.37500000  0.50000000  1
  Mn  Mn93  1  0.12500000  0.37500000  0.62500000  1
  Mn  Mn94  1  0.12500000  0.37500000  0.75000000  1
  Mn  Mn95  1  0.12500000  0.37500000  0.87500000  1
  Ni  Ni96  1  0.12500000  0.50000000  0.00000000  1
  Ni  Ni97  1  0.12500000  0.50000000  0.12500000  1
  Mn  Mn98  1  0.12500000  0.50000000  0.25000000  1
  Ni  Ni99  1  0.12500000  0.50000000  0.37500000  1
  Ni  Ni100  1  0.12500000  0.50000000  0.50000000  1
  Ni  Ni101  1  0.12500000  0.50000000  0.62500000  1
  Ni  Ni102  1  0.12500000  0.50000000  0.75000000  1
  Ni  Ni103  1  0.12500000  0.50000000  0.87500000  1
  Mn  Mn104  1  0.12500000  0.62500000  0.00000000  1
  Ni  Ni105  1  0.12500000  0.62500000  0.12500000  1
  Ni  Ni106  1  0.12500000  0.62500000  0.25000000  1
  Mn  Mn107  1  0.12500000  0.62500000  0.37500000  1
  Ni  Ni108  1  0.12500000  0.62500000  0.50000000  1
  Ni  Ni109  1  0.12500000  0.62500000  0.62500000  1
  Ni  Ni110  1  0.12500000  0.62500000  0.75000000  1
  Ni  Ni111  1  0.12500000  0.62500000  0.87500000  1
  Mn  Mn112  1  0.12500000  0.75000000  0.00000000  1
  Mn  Mn113  1  0.12500000  0.75000000  0.12500000  1
  Ni  Ni114  1  0.12500000  0.75000000  0.25000000  1
  Ni  Ni115  1  0.12500000  0.75000000  0.37500000  1
  Ni  Ni116  1  0.12500000  0.75000000  0.50000000  1
  Mn  Mn117  1  0.12500000  0.75000000  0.62500000  1
  Mn  Mn118  1  0.12500000  0.75000000  0.75000000  1
  Ni  Ni119  1  0.12500000  0.75000000  0.87500000  1
  Ni  Ni120  1  0.12500000  0.87500000  0.00000000  1
  Mn  Mn121  1  0.12500000  0.87500000  0.12500000  1
  Mn  Mn122  1  0.12500000  0.87500000  0.25000000  1
  Mn  Mn123  1  0.12500000  0.87500000  0.37500000  1
  Ni  Ni124  1  0.12500000  0.87500000  0.50000000  1
  Ni  Ni125  1  0.12500000  0.87500000  0.62500000  1
  Mn  Mn126  1  0.12500000  0.87500000  0.75000000  1
  Ni  Ni127  1  0.12500000  0.87500000  0.87500000  1
  Mn  Mn128  1  0.25000000  0.00000000  0.00000000  1
  Mn  Mn129  1  0.25000000  0.00000000  0.12500000  1
  Mn  Mn130  1  0.25000000  0.00000000  0.25000000  1
  Ni  Ni131  1  0.25000000  0.00000000  0.37500000  1
  Mn  Mn132  1  0.25000000  0.00000000  0.50000000  1
  Mn  Mn133  1  0.25000000  0.00000000  0.62500000  1
  Mn  Mn134  1  0.25000000  0.00000000  0.75000000  1
  Ni  Ni135  1  0.25000000  0.00000000  0.87500000  1
  Mn  Mn136  1  0.25000000  0.12500000  0.00000000  1
  Mn  Mn137  1  0.25000000  0.12500000  0.12500000  1
  Ni  Ni138  1  0.25000000  0.12500000  0.25000000  1
  Ni  Ni139  1  0.25000000  0.12500000  0.37500000  1
  Ni  Ni140  1  0.25000000  0.12500000  0.50000000  1
  Mn  Mn141  1  0.25000000  0.12500000  0.62500000  1
  Ni  Ni142  1  0.25000000  0.12500000  0.75000000  1
  Ni  Ni143  1  0.25000000  0.12500000  0.87500000  1
  Mn  Mn144  1  0.25000000  0.25000000  0.00000000  1
  Mn  Mn145  1  0.25000000  0.25000000  0.12500000  1
  Mn  Mn146  1  0.25000000  0.25000000  0.25000000  1
  Mn  Mn147  1  0.25000000  0.25000000  0.37500000  1
  Mn  Mn148  1  0.25000000  0.25000000  0.50000000  1
  Mn  Mn149  1  0.25000000  0.25000000  0.62500000  1
  Ni  Ni150  1  0.25000000  0.25000000  0.75000000  1
  Mn  Mn151  1  0.25000000  0.25000000  0.87500000  1
  Mn  Mn152  1  0.25000000  0.37500000  0.00000000  1
  Mn  Mn153  1  0.25000000  0.37500000  0.12500000  1
  Mn  Mn154  1  0.25000000  0.37500000  0.25000000  1
  Mn  Mn155  1  0.25000000  0.37500000  0.37500000  1
  Mn  Mn156  1  0.25000000  0.37500000  0.50000000  1
  Ni  Ni157  1  0.25000000  0.37500000  0.62500000  1
  Mn  Mn158  1  0.25000000  0.37500000  0.75000000  1
  Ni  Ni159  1  0.25000000  0.37500000  0.87500000  1
  Mn  Mn160  1  0.25000000  0.50000000  0.00000000  1
  Ni  Ni161  1  0.25000000  0.50000000  0.12500000  1
  Ni  Ni162  1  0.25000000  0.50000000  0.25000000  1
  Ni  Ni163  1  0.25000000  0.50000000  0.37500000  1
  Ni  Ni164  1  0.25000000  0.50000000  0.50000000  1
  Mn  Mn165  1  0.25000000  0.50000000  0.62500000  1
  Ni  Ni166  1  0.25000000  0.50000000  0.75000000  1
  Ni  Ni167  1  0.25000000  0.50000000  0.87500000  1
  Mn  Mn168  1  0.25000000  0.62500000  0.00000000  1
  Ni  Ni169  1  0.25000000  0.62500000  0.12500000  1
  Mn  Mn170  1  0.25000000  0.62500000  0.25000000  1
  Ni  Ni171  1  0.25000000  0.62500000  0.37500000  1
  Mn  Mn172  1  0.25000000  0.62500000  0.50000000  1
  Mn  Mn173  1  0.25000000  0.62500000  0.62500000  1
  Mn  Mn174  1  0.25000000  0.62500000  0.75000000  1
  Mn  Mn175  1  0.25000000  0.62500000  0.87500000  1
  Ni  Ni176  1  0.25000000  0.75000000  0.00000000  1
  Ni  Ni177  1  0.25000000  0.75000000  0.12500000  1
  Ni  Ni178  1  0.25000000  0.75000000  0.25000000  1
  Ni  Ni179  1  0.25000000  0.75000000  0.37500000  1
  Mn  Mn180  1  0.25000000  0.75000000  0.50000000  1
  Mn  Mn181  1  0.25000000  0.75000000  0.62500000  1
  Ni  Ni182  1  0.25000000  0.75000000  0.75000000  1
  Ni  Ni183  1  0.25000000  0.75000000  0.87500000  1
  Mn  Mn184  1  0.25000000  0.87500000  0.00000000  1
  Ni  Ni185  1  0.25000000  0.87500000  0.12500000  1
  Mn  Mn186  1  0.25000000  0.87500000  0.25000000  1
  Ni  Ni187  1  0.25000000  0.87500000  0.37500000  1
  Mn  Mn188  1  0.25000000  0.87500000  0.50000000  1
  Mn  Mn189  1  0.25000000  0.87500000  0.62500000  1
  Mn  Mn190  1  0.25000000  0.87500000  0.75000000  1
  Ni  Ni191  1  0.25000000  0.87500000  0.87500000  1
  Ni  Ni192  1  0.37500000  0.00000000  0.00000000  1
  Ni  Ni193  1  0.37500000  0.00000000  0.12500000  1
  Ni  Ni194  1  0.37500000  0.00000000  0.25000000  1
  Mn  Mn195  1  0.37500000  0.00000000  0.37500000  1
  Mn  Mn196  1  0.37500000  0.00000000  0.50000000  1
  Ni  Ni197  1  0.37500000  0.00000000  0.62500000  1
  Mn  Mn198  1  0.37500000  0.00000000  0.75000000  1
  Ni  Ni199  1  0.37500000  0.00000000  0.87500000  1
  Ni  Ni200  1  0.37500000  0.12500000  0.00000000  1
  Mn  Mn201  1  0.37500000  0.12500000  0.12500000  1
  Mn  Mn202  1  0.37500000  0.12500000  0.25000000  1
  Ni  Ni203  1  0.37500000  0.12500000  0.37500000  1
  Ni  Ni204  1  0.37500000  0.12500000  0.50000000  1
  Ni  Ni205  1  0.37500000  0.12500000  0.62500000  1
  Mn  Mn206  1  0.37500000  0.12500000  0.75000000  1
  Mn  Mn207  1  0.37500000  0.12500000  0.87500000  1
  Mn  Mn208  1  0.37500000  0.25000000  0.00000000  1
  Mn  Mn209  1  0.37500000  0.25000000  0.12500000  1
  Mn  Mn210  1  0.37500000  0.25000000  0.25000000  1
  Mn  Mn211  1  0.37500000  0.25000000  0.37500000  1
  Mn  Mn212  1  0.37500000  0.25000000  0.50000000  1
  Ni  Ni213  1  0.37500000  0.25000000  0.62500000  1
  Mn  Mn214  1  0.37500000  0.25000000  0.75000000  1
  Mn  Mn215  1  0.37500000  0.25000000  0.87500000  1
  Ni  Ni216  1  0.37500000  0.37500000  0.00000000  1
  Ni  Ni217  1  0.37500000  0.37500000  0.12500000  1
  Mn  Mn218  1  0.37500000  0.37500000  0.25000000  1
  Ni  Ni219  1  0.37500000  0.37500000  0.37500000  1
  Mn  Mn220  1  0.37500000  0.37500000  0.50000000  1
  Ni  Ni221  1  0.37500000  0.37500000  0.62500000  1
  Ni  Ni222  1  0.37500000  0.37500000  0.75000000  1
  Ni  Ni223  1  0.37500000  0.37500000  0.87500000  1
  Ni  Ni224  1  0.37500000  0.50000000  0.00000000  1
  Ni  Ni225  1  0.37500000  0.50000000  0.12500000  1
  Ni  Ni226  1  0.37500000  0.50000000  0.25000000  1
  Ni  Ni227  1  0.37500000  0.50000000  0.37500000  1
  Ni  Ni228  1  0.37500000  0.50000000  0.50000000  1
  Ni  Ni229  1  0.37500000  0.50000000  0.62500000  1
  Ni  Ni230  1  0.37500000  0.50000000  0.75000000  1
  Mn  Mn231  1  0.37500000  0.50000000  0.87500000  1
  Ni  Ni232  1  0.37500000  0.62500000  0.00000000  1
  Mn  Mn233  1  0.37500000  0.62500000  0.12500000  1
  Ni  Ni234  1  0.37500000  0.62500000  0.25000000  1
  Ni  Ni235  1  0.37500000  0.62500000  0.37500000  1
  Ni  Ni236  1  0.37500000  0.62500000  0.50000000  1
  Mn  Mn237  1  0.37500000  0.62500000  0.62500000  1
  Mn  Mn238  1  0.37500000  0.62500000  0.75000000  1
  Ni  Ni239  1  0.37500000  0.62500000  0.87500000  1
  Mn  Mn240  1  0.37500000  0.75000000  0.00000000  1
  Mn  Mn241  1  0.37500000  0.75000000  0.12500000  1
  Ni  Ni242  1  0.37500000  0.75000000  0.25000000  1
  Ni  Ni243  1  0.37500000  0.75000000  0.37500000  1
  Ni  Ni244  1  0.37500000  0.75000000  0.50000000  1
  Mn  Mn245  1  0.37500000  0.75000000  0.62500000  1
  Ni  Ni246  1  0.37500000  0.75000000  0.75000000  1
  Ni  Ni247  1  0.37500000  0.75000000  0.87500000  1
  Mn  Mn248  1  0.37500000  0.87500000  0.00000000  1
  Mn  Mn249  1  0.37500000  0.87500000  0.12500000  1
  Mn  Mn250  1  0.37500000  0.87500000  0.25000000  1
  Mn  Mn251  1  0.37500000  0.87500000  0.37500000  1
  Mn  Mn252  1  0.37500000  0.87500000  0.50000000  1
  Ni  Ni253  1  0.37500000  0.87500000  0.62500000  1
  Ni  Ni254  1  0.37500000  0.87500000  0.75000000  1
  Mn  Mn255  1  0.37500000  0.87500000  0.87500000  1
  Mn  Mn256  1  0.50000000  0.00000000  0.00000000  1
  Ni  Ni257  1  0.50000000  0.00000000  0.12500000  1
  Mn  Mn258  1  0.50000000  0.00000000  0.25000000  1
  Mn  Mn259  1  0.50000000  0.00000000  0.37500000  1
  Mn  Mn260  1  0.50000000  0.00000000  0.50000000  1
  Mn  Mn261  1  0.50000000  0.00000000  0.62500000  1
  Ni  Ni262  1  0.50000000  0.00000000  0.75000000  1
  Mn  Mn263  1  0.50000000  0.00000000  0.87500000  1
  Ni  Ni264  1  0.50000000  0.12500000  0.00000000  1
  Mn  Mn265  1  0.50000000  0.12500000  0.12500000  1
  Ni  Ni266  1  0.50000000  0.12500000  0.25000000  1
  Ni  Ni267  1  0.50000000  0.12500000  0.37500000  1
  Ni  Ni268  1  0.50000000  0.12500000  0.50000000  1
  Ni  Ni269  1  0.50000000  0.12500000  0.62500000  1
  Ni  Ni270  1  0.50000000  0.12500000  0.75000000  1
  Ni  Ni271  1  0.50000000  0.12500000  0.87500000  1
  Ni  Ni272  1  0.50000000  0.25000000  0.00000000  1
  Mn  Mn273  1  0.50000000  0.25000000  0.12500000  1
  Mn  Mn274  1  0.50000000  0.25000000  0.25000000  1
  Ni  Ni275  1  0.50000000  0.25000000  0.37500000  1
  Ni  Ni276  1  0.50000000  0.25000000  0.50000000  1
  Ni  Ni277  1  0.50000000  0.25000000  0.62500000  1
  Ni  Ni278  1  0.50000000  0.25000000  0.75000000  1
  Mn  Mn279  1  0.50000000  0.25000000  0.87500000  1
  Mn  Mn280  1  0.50000000  0.37500000  0.00000000  1
  Mn  Mn281  1  0.50000000  0.37500000  0.12500000  1
  Ni  Ni282  1  0.50000000  0.37500000  0.25000000  1
  Mn  Mn283  1  0.50000000  0.37500000  0.37500000  1
  Mn  Mn284  1  0.50000000  0.37500000  0.50000000  1
  Mn  Mn285  1  0.50000000  0.37500000  0.62500000  1
  Ni  Ni286  1  0.50000000  0.37500000  0.75000000  1
  Ni  Ni287  1  0.50000000  0.37500000  0.87500000  1
  Mn  Mn288  1  0.50000000  0.50000000  0.00000000  1
  Ni  Ni289  1  0.50000000  0.50000000  0.12500000  1
  Mn  Mn290  1  0.50000000  0.50000000  0.25000000  1
  Ni  Ni291  1  0.50000000  0.50000000  0.37500000  1
  Mn  Mn292  1  0.50000000  0.50000000  0.50000000  1
  Ni  Ni293  1  0.50000000  0.50000000  0.62500000  1
  Mn  Mn294  1  0.50000000  0.50000000  0.75000000  1
  Ni  Ni295  1  0.50000000  0.50000000  0.87500000  1
  Ni  Ni296  1  0.50000000  0.62500000  0.00000000  1
  Mn  Mn297  1  0.50000000  0.62500000  0.12500000  1
  Ni  Ni298  1  0.50000000  0.62500000  0.25000000  1
  Ni  Ni299  1  0.50000000  0.62500000  0.37500000  1
  Mn  Mn300  1  0.50000000  0.62500000  0.50000000  1
  Ni  Ni301  1  0.50000000  0.62500000  0.62500000  1
  Mn  Mn302  1  0.50000000  0.62500000  0.75000000  1
  Mn  Mn303  1  0.50000000  0.62500000  0.87500000  1
  Ni  Ni304  1  0.50000000  0.75000000  0.00000000  1
  Ni  Ni305  1  0.50000000  0.75000000  0.12500000  1
  Mn  Mn306  1  0.50000000  0.75000000  0.25000000  1
  Mn  Mn307  1  0.50000000  0.75000000  0.37500000  1
  Mn  Mn308  1  0.50000000  0.75000000  0.50000000  1
  Mn  Mn309  1  0.50000000  0.75000000  0.62500000  1
  Mn  Mn310  1  0.50000000  0.75000000  0.75000000  1
  Mn  Mn311  1  0.50000000  0.75000000  0.87500000  1
  Mn  Mn312  1  0.50000000  0.87500000  0.00000000  1
  Ni  Ni313  1  0.50000000  0.87500000  0.12500000  1
  Mn  Mn314  1  0.50000000  0.87500000  0.25000000  1
  Mn  Mn315  1  0.50000000  0.87500000  0.37500000  1
  Mn  Mn316  1  0.50000000  0.87500000  0.50000000  1
  Ni  Ni317  1  0.50000000  0.87500000  0.62500000  1
  Ni  Ni318  1  0.50000000  0.87500000  0.75000000  1
  Mn  Mn319  1  0.50000000  0.87500000  0.87500000  1
  Ni  Ni320  1  0.62500000  0.00000000  0.00000000  1
  Mn  Mn321  1  0.62500000  0.00000000  0.12500000  1
  Ni  Ni322  1  0.62500000  0.00000000  0.25000000  1
  Ni  Ni323  1  0.62500000  0.00000000  0.37500000  1
  Ni  Ni324  1  0.62500000  0.00000000  0.50000000  1
  Mn  Mn325  1  0.62500000  0.00000000  0.62500000  1
  Ni  Ni326  1  0.62500000  0.00000000  0.75000000  1
  Ni  Ni327  1  0.62500000  0.00000000  0.87500000  1
  Mn  Mn328  1  0.62500000  0.12500000  0.00000000  1
  Mn  Mn329  1  0.62500000  0.12500000  0.12500000  1
  Ni  Ni330  1  0.62500000  0.12500000  0.25000000  1
  Ni  Ni331  1  0.62500000  0.12500000  0.37500000  1
  Mn  Mn332  1  0.62500000  0.12500000  0.50000000  1
  Mn  Mn333  1  0.62500000  0.12500000  0.62500000  1
  Mn  Mn334  1  0.62500000  0.12500000  0.75000000  1
  Mn  Mn335  1  0.62500000  0.12500000  0.87500000  1
  Mn  Mn336  1  0.62500000  0.25000000  0.00000000  1
  Ni  Ni337  1  0.62500000  0.25000000  0.12500000  1
  Ni  Ni338  1  0.62500000  0.25000000  0.25000000  1
  Ni  Ni339  1  0.62500000  0.25000000  0.37500000  1
  Mn  Mn340  1  0.62500000  0.25000000  0.50000000  1
  Mn  Mn341  1  0.62500000  0.25000000  0.62500000  1
  Mn  Mn342  1  0.62500000  0.25000000  0.75000000  1
  Ni  Ni343  1  0.62500000  0.25000000  0.87500000  1
  Mn  Mn344  1  0.62500000  0.37500000  0.00000000  1
  Mn  Mn345  1  0.62500000  0.37500000  0.12500000  1
  Mn  Mn346  1  0.62500000  0.37500000  0.25000000  1
  Ni  Ni347  1  0.62500000  0.37500000  0.37500000  1
  Ni  Ni348  1  0.62500000  0.37500000  0.50000000  1
  Ni  Ni349  1  0.62500000  0.37500000  0.62500000  1
  Ni  Ni350  1  0.62500000  0.37500000  0.75000000  1
  Mn  Mn351  1  0.62500000  0.37500000  0.87500000  1
  Mn  Mn352  1  0.62500000  0.50000000  0.00000000  1
  Mn  Mn353  1  0.62500000  0.50000000  0.12500000  1
  Ni  Ni354  1  0.62500000  0.50000000  0.25000000  1
  Mn  Mn355  1  0.62500000  0.50000000  0.37500000  1
  Mn  Mn356  1  0.62500000  0.50000000  0.50000000  1
  Ni  Ni357  1  0.62500000  0.50000000  0.62500000  1
  Mn  Mn358  1  0.62500000  0.50000000  0.75000000  1
  Ni  Ni359  1  0.62500000  0.50000000  0.87500000  1
  Ni  Ni360  1  0.62500000  0.62500000  0.00000000  1
  Ni  Ni361  1  0.62500000  0.62500000  0.12500000  1
  Ni  Ni362  1  0.62500000  0.62500000  0.25000000  1
  Ni  Ni363  1  0.62500000  0.62500000  0.37500000  1
  Ni  Ni364  1  0.62500000  0.62500000  0.50000000  1
  Ni  Ni365  1  0.62500000  0.62500000  0.62500000  1
  Ni  Ni366  1  0.62500000  0.62500000  0.75000000  1
  Mn  Mn367  1  0.62500000  0.62500000  0.87500000  1
  Mn  Mn368  1  0.62500000  0.75000000  0.00000000  1
  Mn  Mn369  1  0.62500000  0.75000000  0.12500000  1
  Mn  Mn370  1  0.62500000  0.75000000  0.25000000  1
  Mn  Mn371  1  0.62500000  0.75000000  0.37500000  1
  Mn  Mn372  1  0.62500000  0.75000000  0.50000000  1
  Ni  Ni373  1  0.62500000  0.75000000  0.62500000  1
  Mn  Mn374  1  0.62500000  0.75000000  0.75000000  1
  Ni  Ni375  1  0.62500000  0.75000000  0.87500000  1
  Ni  Ni376  1  0.62500000  0.87500000  0.00000000  1
  Mn  Mn377  1  0.62500000  0.87500000  0.12500000  1
  Mn  Mn378  1  0.62500000  0.87500000  0.25000000  1
  Mn  Mn379  1  0.62500000  0.87500000  0.37500000  1
  Mn  Mn380  1  0.62500000  0.87500000  0.50000000  1
  Ni  Ni381  1  0.62500000  0.87500000  0.62500000  1
  Mn  Mn382  1  0.62500000  0.87500000  0.75000000  1
  Mn  Mn383  1  0.62500000  0.87500000  0.87500000  1
  Ni  Ni384  1  0.75000000  0.00000000  0.00000000  1
  Mn  Mn385  1  0.75000000  0.00000000  0.12500000  1
  Mn  Mn386  1  0.75000000  0.00000000  0.25000000  1
  Ni  Ni387  1  0.75000000  0.00000000  0.37500000  1
  Ni  Ni388  1  0.75000000  0.00000000  0.50000000  1
  Mn  Mn389  1  0.75000000  0.00000000  0.62500000  1
  Ni  Ni390  1  0.75000000  0.00000000  0.75000000  1
  Mn  Mn391  1  0.75000000  0.00000000  0.87500000  1
  Ni  Ni392  1  0.75000000  0.12500000  0.00000000  1
  Mn  Mn393  1  0.75000000  0.12500000  0.12500000  1
  Mn  Mn394  1  0.75000000  0.12500000  0.25000000  1
  Mn  Mn395  1  0.75000000  0.12500000  0.37500000  1
  Ni  Ni396  1  0.75000000  0.12500000  0.50000000  1
  Mn  Mn397  1  0.75000000  0.12500000  0.62500000  1
  Mn  Mn398  1  0.75000000  0.12500000  0.75000000  1
  Ni  Ni399  1  0.75000000  0.12500000  0.87500000  1
  Mn  Mn400  1  0.75000000  0.25000000  0.00000000  1
  Ni  Ni401  1  0.75000000  0.25000000  0.12500000  1
  Mn  Mn402  1  0.75000000  0.25000000  0.25000000  1
  Mn  Mn403  1  0.75000000  0.25000000  0.37500000  1
  Mn  Mn404  1  0.75000000  0.25000000  0.50000000  1
  Ni  Ni405  1  0.75000000  0.25000000  0.62500000  1
  Mn  Mn406  1  0.75000000  0.25000000  0.75000000  1
  Mn  Mn407  1  0.75000000  0.25000000  0.87500000  1
  Mn  Mn408  1  0.75000000  0.37500000  0.00000000  1
  Ni  Ni409  1  0.75000000  0.37500000  0.12500000  1
  Ni  Ni410  1  0.75000000  0.37500000  0.25000000  1
  Ni  Ni411  1  0.75000000  0.37500000  0.37500000  1
  Mn  Mn412  1  0.75000000  0.37500000  0.50000000  1
  Ni  Ni413  1  0.75000000  0.37500000  0.62500000  1
  Mn  Mn414  1  0.75000000  0.37500000  0.75000000  1
  Mn  Mn415  1  0.75000000  0.37500000  0.87500000  1
  Mn  Mn416  1  0.75000000  0.50000000  0.00000000  1
  Ni  Ni417  1  0.75000000  0.50000000  0.12500000  1
  Mn  Mn418  1  0.75000000  0.50000000  0.25000000  1
  Mn  Mn419  1  0.75000000  0.50000000  0.37500000  1
  Mn  Mn420  1  0.75000000  0.50000000  0.50000000  1
  Mn  Mn421  1  0.75000000  0.50000000  0.62500000  1
  Mn  Mn422  1  0.75000000  0.50000000  0.75000000  1
  Ni  Ni423  1  0.75000000  0.50000000  0.87500000  1
  Ni  Ni424  1  0.75000000  0.62500000  0.00000000  1
  Ni  Ni425  1  0.75000000  0.62500000  0.12500000  1
  Ni  Ni426  1  0.75000000  0.62500000  0.25000000  1
  Mn  Mn427  1  0.75000000  0.62500000  0.37500000  1
  Ni  Ni428  1  0.75000000  0.62500000  0.50000000  1
  Mn  Mn429  1  0.75000000  0.62500000  0.62500000  1
  Ni  Ni430  1  0.75000000  0.62500000  0.75000000  1
  Mn  Mn431  1  0.75000000  0.62500000  0.87500000  1
  Mn  Mn432  1  0.75000000  0.75000000  0.00000000  1
  Mn  Mn433  1  0.75000000  0.75000000  0.12500000  1
  Ni  Ni434  1  0.75000000  0.75000000  0.25000000  1
  Mn  Mn435  1  0.75000000  0.75000000  0.37500000  1
  Ni  Ni436  1  0.75000000  0.75000000  0.50000000  1
  Mn  Mn437  1  0.75000000  0.75000000  0.62500000  1
  Mn  Mn438  1  0.75000000  0.75000000  0.75000000  1
  Ni  Ni439  1  0.75000000  0.75000000  0.87500000  1
  Ni  Ni440  1  0.75000000  0.87500000  0.00000000  1
  Mn  Mn441  1  0.75000000  0.87500000  0.12500000  1
  Mn  Mn442  1  0.75000000  0.87500000  0.25000000  1
  Ni  Ni443  1  0.75000000  0.87500000  0.37500000  1
  Mn  Mn444  1  0.75000000  0.87500000  0.50000000  1
  Ni  Ni445  1  0.75000000  0.87500000  0.62500000  1
  Mn  Mn446  1  0.75000000  0.87500000  0.75000000  1
  Ni  Ni447  1  0.75000000  0.87500000  0.87500000  1
  Mn  Mn448  1  0.87500000  0.00000000  0.00000000  1
  Mn  Mn449  1  0.87500000  0.00000000  0.12500000  1
  Ni  Ni450  1  0.87500000  0.00000000  0.25000000  1
  Ni  Ni451  1  0.87500000  0.00000000  0.37500000  1
  Ni  Ni452  1  0.87500000  0.00000000  0.50000000  1
  Mn  Mn453  1  0.87500000  0.00000000  0.62500000  1
  Mn  Mn454  1  0.87500000  0.00000000  0.75000000  1
  Ni  Ni455  1  0.87500000  0.00000000  0.87500000  1
  Ni  Ni456  1  0.87500000  0.12500000  0.00000000  1
  Mn  Mn457  1  0.87500000  0.12500000  0.12500000  1
  Mn  Mn458  1  0.87500000  0.12500000  0.25000000  1
  Ni  Ni459  1  0.87500000  0.12500000  0.37500000  1
  Ni  Ni460  1  0.87500000  0.12500000  0.50000000  1
  Mn  Mn461  1  0.87500000  0.12500000  0.62500000  1
  Ni  Ni462  1  0.87500000  0.12500000  0.75000000  1
  Mn  Mn463  1  0.87500000  0.12500000  0.87500000  1
  Mn  Mn464  1  0.87500000  0.25000000  0.00000000  1
  Ni  Ni465  1  0.87500000  0.25000000  0.12500000  1
  Ni  Ni466  1  0.87500000  0.25000000  0.25000000  1
  Ni  Ni467  1  0.87500000  0.25000000  0.37500000  1
  Mn  Mn468  1  0.87500000  0.25000000  0.50000000  1
  Ni  Ni469  1  0.87500000  0.25000000  0.62500000  1
  Mn  Mn470  1  0.87500000  0.25000000  0.75000000  1
  Mn  Mn471  1  0.87500000  0.25000000  0.87500000  1
  Ni  Ni472  1  0.87500000  0.37500000  0.00000000  1
  Ni  Ni473  1  0.87500000  0.37500000  0.12500000  1
  Mn  Mn474  1  0.87500000  0.37500000  0.25000000  1
  Mn  Mn475  1  0.87500000  0.37500000  0.37500000  1
  Mn  Mn476  1  0.87500000  0.37500000  0.50000000  1
  Mn  Mn477  1  0.87500000  0.37500000  0.62500000  1
  Mn  Mn478  1  0.87500000  0.37500000  0.75000000  1
  Mn  Mn479  1  0.87500000  0.37500000  0.87500000  1
  Ni  Ni480  1  0.87500000  0.50000000  0.00000000  1
  Ni  Ni481  1  0.87500000  0.50000000  0.12500000  1
  Ni  Ni482  1  0.87500000  0.50000000  0.25000000  1
  Mn  Mn483  1  0.87500000  0.50000000  0.37500000  1
  Ni  Ni484  1  0.87500000  0.50000000  0.50000000  1
  Mn  Mn485  1  0.87500000  0.50000000  0.62500000  1
  Mn  Mn486  1  0.87500000  0.50000000  0.75000000  1
  Mn  Mn487  1  0.87500000  0.50000000  0.87500000  1
  Ni  Ni488  1  0.87500000  0.62500000  0.00000000  1
  Mn  Mn489  1  0.87500000  0.62500000  0.12500000  1
  Ni  Ni490  1  0.87500000  0.62500000  0.25000000  1
  Mn  Mn491  1  0.87500000  0.62500000  0.37500000  1
  Ni  Ni492  1  0.87500000  0.62500000  0.50000000  1
  Mn  Mn493  1  0.87500000  0.62500000  0.62500000  1
  Ni  Ni494  1  0.87500000  0.62500000  0.75000000  1
  Mn  Mn495  1  0.87500000  0.62500000  0.87500000  1
  Ni  Ni496  1  0.87500000  0.75000000  0.00000000  1
  Ni  Ni497  1  0.87500000  0.75000000  0.12500000  1
  Ni  Ni498  1  0.87500000  0.75000000  0.25000000  1
  Ni  Ni499  1  0.87500000  0.75000000  0.37500000  1
  Ni  Ni500  1  0.87500000  0.75000000  0.50000000  1
  Mn  Mn501  1  0.87500000  0.75000000  0.62500000  1
  Mn  Mn502  1  0.87500000  0.75000000  0.75000000  1
  Ni  Ni503  1  0.87500000  0.75000000  0.87500000  1
  Mn  Mn504  1  0.87500000  0.87500000  0.00000000  1
  Ni  Ni505  1  0.87500000  0.87500000  0.12500000  1
  Mn  Mn506  1  0.87500000  0.87500000  0.25000000  1
  Mn  Mn507  1  0.87500000  0.87500000  0.37500000  1
  Mn  Mn508  1  0.87500000  0.87500000  0.50000000  1
  Ni  Ni509  1  0.87500000  0.87500000  0.62500000  1
  Ni  Ni510  1  0.87500000  0.87500000  0.75000000  1
  Ni  Ni511  1  0.87500000  0.87500000  0.87500000  1
  Ni  Ni512  1  0.00000000  0.00000000  0.06250000  1
  Mn  Mn513  1  0.00000000  0.00000000  0.18750000  1
  Mn  Mn514  1  0.00000000  0.00000000  0.31250000  1
  Mn  Mn515  1  0.00000000  0.00000000  0.43750000  1
  Ni  Ni516  1  0.00000000  0.00000000  0.56250000  1
  Mn  Mn517  1  0.00000000  0.00000000  0.68750000  1
  Mn  Mn518  1  0.00000000  0.00000000  0.81250000  1
  Ni  Ni519  1  0.00000000  0.00000000  0.93750000  1
  Mn  Mn520  1  0.00000000  0.12500000  0.06250000  1
  Ni  Ni521  1  0.00000000  0.12500000  0.18750000  1
  Mn  Mn522  1  0.00000000  0.12500000  0.31250000  1
  Mn  Mn523  1  0.00000000  0.12500000  0.43750000  1
  Ni  Ni524  1  0.00000000  0.12500000  0.56250000  1
  Ni  Ni525  1  0.00000000  0.12500000  0.68750000  1
  Mn  Mn526  1  0.00000000  0.12500000  0.81250000  1
  Mn  Mn527  1  0.00000000  0.12500000  0.93750000  1
  Ni  Ni528  1  0.00000000  0.25000000  0.06250000  1
  Ni  Ni529  1  0.00000000  0.25000000  0.18750000  1
  Mn  Mn530  1  0.00000000  0.25000000  0.31250000  1
  Ni  Ni531  1  0.00000000  0.25000000  0.43750000  1
  Mn  Mn532  1  0.00000000  0.25000000  0.56250000  1
  Mn  Mn533  1  0.00000000  0.25000000  0.68750000  1
  Mn  Mn534  1  0.00000000  0.25000000  0.81250000  1
  Mn  Mn535  1  0.00000000  0.25000000  0.93750000  1
  Ni  Ni536  1  0.00000000  0.37500000  0.06250000  1
  Mn  Mn537  1  0.00000000  0.37500000  0.18750000  1
  Mn  Mn538  1  0.00000000  0.37500000  0.31250000  1
  Mn  Mn539  1  0.00000000  0.37500000  0.43750000  1
  Mn  Mn540  1  0.00000000  0.37500000  0.56250000  1
  Ni  Ni541  1  0.00000000  0.37500000  0.68750000  1
  Ni  Ni542  1  0.00000000  0.37500000  0.81250000  1
  Ni  Ni543  1  0.00000000  0.37500000  0.93750000  1
  Ni  Ni544  1  0.00000000  0.50000000  0.06250000  1
  Ni  Ni545  1  0.00000000  0.50000000  0.18750000  1
  Ni  Ni546  1  0.00000000  0.50000000  0.31250000  1
  Ni  Ni547  1  0.00000000  0.50000000  0.43750000  1
  Ni  Ni548  1  0.00000000  0.50000000  0.56250000  1
  Ni  Ni549  1  0.00000000  0.50000000  0.68750000  1
  Ni  Ni550  1  0.00000000  0.50000000  0.81250000  1
  Ni  Ni551  1  0.00000000  0.50000000  0.93750000  1
  Mn  Mn552  1  0.00000000  0.62500000  0.06250000  1
  Mn  Mn553  1  0.00000000  0.62500000  0.18750000  1
  Mn  Mn554  1  0.00000000  0.62500000  0.31250000  1
  Mn  Mn555  1  0.00000000  0.62500000  0.43750000  1
  Ni  Ni556  1  0.00000000  0.62500000  0.56250000  1
  Mn  Mn557  1  0.00000000  0.62500000  0.68750000  1
  Mn  Mn558  1  0.00000000  0.62500000  0.81250000  1
  Ni  Ni559  1  0.00000000  0.62500000  0.93750000  1
  Mn  Mn560  1  0.00000000  0.75000000  0.06250000  1
  Mn  Mn561  1  0.00000000  0.75000000  0.18750000  1
  Ni  Ni562  1  0.00000000  0.75000000  0.31250000  1
  Mn  Mn563  1  0.00000000  0.75000000  0.43750000  1
  Mn  Mn564  1  0.00000000  0.75000000  0.56250000  1
  Mn  Mn565  1  0.00000000  0.75000000  0.68750000  1
  Ni  Ni566  1  0.00000000  0.75000000  0.81250000  1
  Mn  Mn567  1  0.00000000  0.75000000  0.93750000  1
  Ni  Ni568  1  0.00000000  0.87500000  0.06250000  1
  Mn  Mn569  1  0.00000000  0.87500000  0.18750000  1
  Ni  Ni570  1  0.00000000  0.87500000  0.31250000  1
  Ni  Ni571  1  0.00000000  0.87500000  0.43750000  1
  Ni  Ni572  1  0.00000000  0.87500000  0.56250000  1
  Ni  Ni573  1  0.00000000  0.87500000  0.68750000  1
  Mn  Mn574  1  0.00000000  0.87500000  0.81250000  1
  Mn  Mn575  1  0.00000000  0.87500000  0.93750000  1
  Ni  Ni576  1  0.12500000  0.00000000  0.06250000  1
  Ni  Ni577  1  0.12500000  0.00000000  0.18750000  1
  Mn  Mn578  1  0.12500000  0.00000000  0.31250000  1
  Ni  Ni579  1  0.12500000  0.00000000  0.43750000  1
  Mn  Mn580  1  0.12500000  0.00000000  0.56250000  1
  Ni  Ni581  1  0.12500000  0.00000000  0.68750000  1
  Ni  Ni582  1  0.12500000  0.00000000  0.81250000  1
  Mn  Mn583  1  0.12500000  0.00000000  0.93750000  1
  Ni  Ni584  1  0.12500000  0.12500000  0.06250000  1
  Ni  Ni585  1  0.12500000  0.12500000  0.18750000  1
  Mn  Mn586  1  0.12500000  0.12500000  0.31250000  1
  Ni  Ni587  1  0.12500000  0.12500000  0.43750000  1
  Mn  Mn588  1  0.12500000  0.12500000  0.56250000  1
  Ni  Ni589  1  0.12500000  0.12500000  0.68750000  1
  Mn  Mn590  1  0.12500000  0.12500000  0.81250000  1
  Mn  Mn591  1  0.12500000  0.12500000  0.93750000  1
  Ni  Ni592  1  0.12500000  0.25000000  0.06250000  1
  Ni  Ni593  1  0.12500000  0.25000000  0.18750000  1
  Mn  Mn594  1  0.12500000  0.25000000  0.31250000  1
  Ni  Ni595  1  0.12500000  0.25000000  0.43750000  1
  Ni  Ni596  1  0.12500000  0.25000000  0.56250000  1
  Mn  Mn597  1  0.12500000  0.25000000  0.68750000  1
  Ni  Ni598  1  0.12500000  0.25000000  0.81250000  1
  Ni  Ni599  1  0.12500000  0.25000000  0.93750000  1
  Ni  Ni600  1  0.12500000  0.37500000  0.06250000  1
  Ni  Ni601  1  0.12500000  0.37500000  0.18750000  1
  Mn  Mn602  1  0.12500000  0.37500000  0.31250000  1
  Mn  Mn603  1  0.12500000  0.37500000  0.43750000  1
  Mn  Mn604  1  0.12500000  0.37500000  0.56250000  1
  Mn  Mn605  1  0.12500000  0.37500000  0.68750000  1
  Mn  Mn606  1  0.12500000  0.37500000  0.81250000  1
  Ni  Ni607  1  0.12500000  0.37500000  0.93750000  1
  Mn  Mn608  1  0.12500000  0.50000000  0.06250000  1
  Mn  Mn609  1  0.12500000  0.50000000  0.18750000  1
  Ni  Ni610  1  0.12500000  0.50000000  0.31250000  1
  Mn  Mn611  1  0.12500000  0.50000000  0.43750000  1
  Mn  Mn612  1  0.12500000  0.50000000  0.56250000  1
  Mn  Mn613  1  0.12500000  0.50000000  0.68750000  1
  Ni  Ni614  1  0.12500000  0.50000000  0.81250000  1
  Ni  Ni615  1  0.12500000  0.50000000  0.93750000  1
  Mn  Mn616  1  0.12500000  0.62500000  0.06250000  1
  Mn  Mn617  1  0.12500000  0.62500000  0.18750000  1
  Ni  Ni618  1  0.12500000  0.62500000  0.31250000  1
  Ni  Ni619  1  0.12500000  0.62500000  0.43750000  1
  Ni  Ni620  1  0.12500000  0.62500000  0.56250000  1
  Mn  Mn621  1  0.12500000  0.62500000  0.68750000  1
  Mn  Mn622  1  0.12500000  0.62500000  0.81250000  1
  Ni  Ni623  1  0.12500000  0.62500000  0.93750000  1
  Ni  Ni624  1  0.12500000  0.75000000  0.06250000  1
  Ni  Ni625  1  0.12500000  0.75000000  0.18750000  1
  Ni  Ni626  1  0.12500000  0.75000000  0.31250000  1
  Ni  Ni627  1  0.12500000  0.75000000  0.43750000  1
  Mn  Mn628  1  0.12500000  0.75000000  0.56250000  1
  Mn  Mn629  1  0.12500000  0.75000000  0.68750000  1
  Mn  Mn630  1  0.12500000  0.75000000  0.81250000  1
  Mn  Mn631  1  0.12500000  0.75000000  0.93750000  1
  Mn  Mn632  1  0.12500000  0.87500000  0.06250000  1
  Mn  Mn633  1  0.12500000  0.87500000  0.18750000  1
  Ni  Ni634  1  0.12500000  0.87500000  0.31250000  1
  Mn  Mn635  1  0.12500000  0.87500000  0.43750000  1
  Mn  Mn636  1  0.12500000  0.87500000  0.56250000  1
  Ni  Ni637  1  0.12500000  0.87500000  0.68750000  1
  Ni  Ni638  1  0.12500000  0.87500000  0.81250000  1
  Ni  Ni639  1  0.12500000  0.87500000  0.93750000  1
  Mn  Mn640  1  0.25000000  0.00000000  0.06250000  1
  Mn  Mn641  1  0.25000000  0.00000000  0.18750000  1
  Mn  Mn642  1  0.25000000  0.00000000  0.31250000  1
  Mn  Mn643  1  0.25000000  0.00000000  0.43750000  1
  Ni  Ni644  1  0.25000000  0.00000000  0.56250000  1
  Mn  Mn645  1  0.25000000  0.00000000  0.68750000  1
  Mn  Mn646  1  0.25000000  0.00000000  0.81250000  1
  Mn  Mn647  1  0.25000000  0.00000000  0.93750000  1
  Ni  Ni648  1  0.25000000  0.12500000  0.06250000  1
  Mn  Mn649  1  0.25000000  0.12500000  0.18750000  1
  Mn  Mn650  1  0.25000000  0.12500000  0.31250000  1
  Ni  Ni651  1  0.25000000  0.12500000  0.43750000  1
  Mn  Mn652  1  0.25000000  0.12500000  0.56250000  1
  Ni  Ni653  1  0.25000000  0.12500000  0.68750000  1
  Ni  Ni654  1  0.25000000  0.12500000  0.81250000  1
  Mn  Mn655  1  0.25000000  0.12500000  0.93750000  1
  Ni  Ni656  1  0.25000000  0.25000000  0.06250000  1
  Ni  Ni657  1  0.25000000  0.25000000  0.18750000  1
  Mn  Mn658  1  0.25000000  0.25000000  0.31250000  1
  Ni  Ni659  1  0.25000000  0.25000000  0.43750000  1
  Ni  Ni660  1  0.25000000  0.25000000  0.56250000  1
  Mn  Mn661  1  0.25000000  0.25000000  0.68750000  1
  Ni  Ni662  1  0.25000000  0.25000000  0.81250000  1
  Mn  Mn663  1  0.25000000  0.25000000  0.93750000  1
  Mn  Mn664  1  0.25000000  0.37500000  0.06250000  1
  Mn  Mn665  1  0.25000000  0.37500000  0.18750000  1
  Ni  Ni666  1  0.25000000  0.37500000  0.31250000  1
  Mn  Mn667  1  0.25000000  0.37500000  0.43750000  1
  Ni  Ni668  1  0.25000000  0.37500000  0.56250000  1
  Mn  Mn669  1  0.25000000  0.37500000  0.68750000  1
  Mn  Mn670  1  0.25000000  0.37500000  0.81250000  1
  Mn  Mn671  1  0.25000000  0.37500000  0.93750000  1
  Ni  Ni672  1  0.25000000  0.50000000  0.06250000  1
  Ni  Ni673  1  0.25000000  0.50000000  0.18750000  1
  Ni  Ni674  1  0.25000000  0.50000000  0.31250000  1
  Ni  Ni675  1  0.25000000  0.50000000  0.43750000  1
  Mn  Mn676  1  0.25000000  0.50000000  0.56250000  1
  Mn  Mn677  1  0.25000000  0.50000000  0.68750000  1
  Ni  Ni678  1  0.25000000  0.50000000  0.81250000  1
  Mn  Mn679  1  0.25000000  0.50000000  0.93750000  1
  Ni  Ni680  1  0.25000000  0.62500000  0.06250000  1
  Ni  Ni681  1  0.25000000  0.62500000  0.18750000  1
  Mn  Mn682  1  0.25000000  0.62500000  0.31250000  1
  Mn  Mn683  1  0.25000000  0.62500000  0.43750000  1
  Ni  Ni684  1  0.25000000  0.62500000  0.56250000  1
  Ni  Ni685  1  0.25000000  0.62500000  0.68750000  1
  Ni  Ni686  1  0.25000000  0.62500000  0.81250000  1
  Mn  Mn687  1  0.25000000  0.62500000  0.93750000  1
  Mn  Mn688  1  0.25000000  0.75000000  0.06250000  1
  Ni  Ni689  1  0.25000000  0.75000000  0.18750000  1
  Mn  Mn690  1  0.25000000  0.75000000  0.31250000  1
  Mn  Mn691  1  0.25000000  0.75000000  0.43750000  1
  Ni  Ni692  1  0.25000000  0.75000000  0.56250000  1
  Mn  Mn693  1  0.25000000  0.75000000  0.68750000  1
  Mn  Mn694  1  0.25000000  0.75000000  0.81250000  1
  Mn  Mn695  1  0.25000000  0.75000000  0.93750000  1
  Ni  Ni696  1  0.25000000  0.87500000  0.06250000  1
  Ni  Ni697  1  0.25000000  0.87500000  0.18750000  1
  Mn  Mn698  1  0.25000000  0.87500000  0.31250000  1
  Ni  Ni699  1  0.25000000  0.87500000  0.43750000  1
  Mn  Mn700  1  0.25000000  0.87500000  0.56250000  1
  Mn  Mn701  1  0.25000000  0.87500000  0.68750000  1
  Ni  Ni702  1  0.25000000  0.87500000  0.81250000  1
  Ni  Ni703  1  0.25000000  0.87500000  0.93750000  1
  Mn  Mn704  1  0.37500000  0.00000000  0.06250000  1
  Ni  Ni705  1  0.37500000  0.00000000  0.18750000  1
  Mn  Mn706  1  0.37500000  0.00000000  0.31250000  1
  Mn  Mn707  1  0.37500000  0.00000000  0.43750000  1
  Ni  Ni708  1  0.37500000  0.00000000  0.56250000  1
  Mn  Mn709  1  0.37500000  0.00000000  0.68750000  1
  Ni  Ni710  1  0.37500000  0.00000000  0.81250000  1
  Ni  Ni711  1  0.37500000  0.00000000  0.93750000  1
  Ni  Ni712  1  0.37500000  0.12500000  0.06250000  1
  Mn  Mn713  1  0.37500000  0.12500000  0.18750000  1
  Ni  Ni714  1  0.37500000  0.12500000  0.31250000  1
  Mn  Mn715  1  0.37500000  0.12500000  0.43750000  1
  Ni  Ni716  1  0.37500000  0.12500000  0.56250000  1
  Mn  Mn717  1  0.37500000  0.12500000  0.68750000  1
  Ni  Ni718  1  0.37500000  0.12500000  0.81250000  1
  Ni  Ni719  1  0.37500000  0.12500000  0.93750000  1
  Mn  Mn720  1  0.37500000  0.25000000  0.06250000  1
  Mn  Mn721  1  0.37500000  0.25000000  0.18750000  1
  Mn  Mn722  1  0.37500000  0.25000000  0.31250000  1
  Ni  Ni723  1  0.37500000  0.25000000  0.43750000  1
  Ni  Ni724  1  0.37500000  0.25000000  0.56250000  1
  Mn  Mn725  1  0.37500000  0.25000000  0.68750000  1
  Ni  Ni726  1  0.37500000  0.25000000  0.81250000  1
  Mn  Mn727  1  0.37500000  0.25000000  0.93750000  1
  Ni  Ni728  1  0.37500000  0.37500000  0.06250000  1
  Ni  Ni729  1  0.37500000  0.37500000  0.18750000  1
  Ni  Ni730  1  0.37500000  0.37500000  0.31250000  1
  Ni  Ni731  1  0.37500000  0.37500000  0.43750000  1
  Ni  Ni732  1  0.37500000  0.37500000  0.56250000  1
  Mn  Mn733  1  0.37500000  0.37500000  0.68750000  1
  Mn  Mn734  1  0.37500000  0.37500000  0.81250000  1
  Mn  Mn735  1  0.37500000  0.37500000  0.93750000  1
  Ni  Ni736  1  0.37500000  0.50000000  0.06250000  1
  Mn  Mn737  1  0.37500000  0.50000000  0.18750000  1
  Mn  Mn738  1  0.37500000  0.50000000  0.31250000  1
  Mn  Mn739  1  0.37500000  0.50000000  0.43750000  1
  Ni  Ni740  1  0.37500000  0.50000000  0.56250000  1
  Mn  Mn741  1  0.37500000  0.50000000  0.68750000  1
  Ni  Ni742  1  0.37500000  0.50000000  0.81250000  1
  Mn  Mn743  1  0.37500000  0.50000000  0.93750000  1
  Mn  Mn744  1  0.37500000  0.62500000  0.06250000  1
  Ni  Ni745  1  0.37500000  0.62500000  0.18750000  1
  Ni  Ni746  1  0.37500000  0.62500000  0.31250000  1
  Ni  Ni747  1  0.37500000  0.62500000  0.43750000  1
  Mn  Mn748  1  0.37500000  0.62500000  0.56250000  1
  Mn  Mn749  1  0.37500000  0.62500000  0.68750000  1
  Ni  Ni750  1  0.37500000  0.62500000  0.81250000  1
  Ni  Ni751  1  0.37500000  0.62500000  0.93750000  1
  Ni  Ni752  1  0.37500000  0.75000000  0.06250000  1
  Ni  Ni753  1  0.37500000  0.75000000  0.18750000  1
  Mn  Mn754  1  0.37500000  0.75000000  0.31250000  1
  Mn  Mn755  1  0.37500000  0.75000000  0.43750000  1
  Mn  Mn756  1  0.37500000  0.75000000  0.56250000  1
  Mn  Mn757  1  0.37500000  0.75000000  0.68750000  1
  Ni  Ni758  1  0.37500000  0.75000000  0.81250000  1
  Ni  Ni759  1  0.37500000  0.75000000  0.93750000  1
  Ni  Ni760  1  0.37500000  0.87500000  0.06250000  1
  Ni  Ni761  1  0.37500000  0.87500000  0.18750000  1
  Mn  Mn762  1  0.37500000  0.87500000  0.31250000  1
  Ni  Ni763  1  0.37500000  0.87500000  0.43750000  1
  Mn  Mn764  1  0.37500000  0.87500000  0.56250000  1
  Mn  Mn765  1  0.37500000  0.87500000  0.68750000  1
  Ni  Ni766  1  0.37500000  0.87500000  0.81250000  1
  Mn  Mn767  1  0.37500000  0.87500000  0.93750000  1
  Ni  Ni768  1  0.50000000  0.00000000  0.06250000  1
  Ni  Ni769  1  0.50000000  0.00000000  0.18750000  1
  Ni  Ni770  1  0.50000000  0.00000000  0.31250000  1
  Ni  Ni771  1  0.50000000  0.00000000  0.43750000  1
  Ni  Ni772  1  0.50000000  0.00000000  0.56250000  1
  Mn  Mn773  1  0.50000000  0.00000000  0.68750000  1
  Mn  Mn774  1  0.50000000  0.00000000  0.81250000  1
  Mn  Mn775  1  0.50000000  0.00000000  0.93750000  1
  Ni  Ni776  1  0.50000000  0.12500000  0.06250000  1
  Mn  Mn777  1  0.50000000  0.12500000  0.18750000  1
  Ni  Ni778  1  0.50000000  0.12500000  0.31250000  1
  Mn  Mn779  1  0.50000000  0.12500000  0.43750000  1
  Ni  Ni780  1  0.50000000  0.12500000  0.56250000  1
  Mn  Mn781  1  0.50000000  0.12500000  0.68750000  1
  Mn  Mn782  1  0.50000000  0.12500000  0.81250000  1
  Mn  Mn783  1  0.50000000  0.12500000  0.93750000  1
  Ni  Ni784  1  0.50000000  0.25000000  0.06250000  1
  Mn  Mn785  1  0.50000000  0.25000000  0.18750000  1
  Mn  Mn786  1  0.50000000  0.25000000  0.31250000  1
  Ni  Ni787  1  0.50000000  0.25000000  0.43750000  1
  Mn  Mn788  1  0.50000000  0.25000000  0.56250000  1
  Ni  Ni789  1  0.50000000  0.25000000  0.68750000  1
  Ni  Ni790  1  0.50000000  0.25000000  0.81250000  1
  Mn  Mn791  1  0.50000000  0.25000000  0.93750000  1
  Mn  Mn792  1  0.50000000  0.37500000  0.06250000  1
  Mn  Mn793  1  0.50000000  0.37500000  0.18750000  1
  Ni  Ni794  1  0.50000000  0.37500000  0.31250000  1
  Mn  Mn795  1  0.50000000  0.37500000  0.43750000  1
  Ni  Ni796  1  0.50000000  0.37500000  0.56250000  1
  Mn  Mn797  1  0.50000000  0.37500000  0.68750000  1
  Ni  Ni798  1  0.50000000  0.37500000  0.81250000  1
  Ni  Ni799  1  0.50000000  0.37500000  0.93750000  1
  Mn  Mn800  1  0.50000000  0.50000000  0.06250000  1
  Mn  Mn801  1  0.50000000  0.50000000  0.18750000  1
  Ni  Ni802  1  0.50000000  0.50000000  0.31250000  1
  Mn  Mn803  1  0.50000000  0.50000000  0.43750000  1
  Ni  Ni804  1  0.50000000  0.50000000  0.56250000  1
  Ni  Ni805  1  0.50000000  0.50000000  0.68750000  1
  Ni  Ni806  1  0.50000000  0.50000000  0.81250000  1
  Ni  Ni807  1  0.50000000  0.50000000  0.93750000  1
  Ni  Ni808  1  0.50000000  0.62500000  0.06250000  1
  Ni  Ni809  1  0.50000000  0.62500000  0.18750000  1
  Mn  Mn810  1  0.50000000  0.62500000  0.31250000  1
  Ni  Ni811  1  0.50000000  0.62500000  0.43750000  1
  Ni  Ni812  1  0.50000000  0.62500000  0.56250000  1
  Ni  Ni813  1  0.50000000  0.62500000  0.68750000  1
  Mn  Mn814  1  0.50000000  0.62500000  0.81250000  1
  Ni  Ni815  1  0.50000000  0.62500000  0.93750000  1
  Mn  Mn816  1  0.50000000  0.75000000  0.06250000  1
  Mn  Mn817  1  0.50000000  0.75000000  0.18750000  1
  Mn  Mn818  1  0.50000000  0.75000000  0.31250000  1
  Ni  Ni819  1  0.50000000  0.75000000  0.43750000  1
  Ni  Ni820  1  0.50000000  0.75000000  0.56250000  1
  Ni  Ni821  1  0.50000000  0.75000000  0.68750000  1
  Ni  Ni822  1  0.50000000  0.75000000  0.81250000  1
  Ni  Ni823  1  0.50000000  0.75000000  0.93750000  1
  Mn  Mn824  1  0.50000000  0.87500000  0.06250000  1
  Mn  Mn825  1  0.50000000  0.87500000  0.18750000  1
  Mn  Mn826  1  0.50000000  0.87500000  0.31250000  1
  Mn  Mn827  1  0.50000000  0.87500000  0.43750000  1
  Ni  Ni828  1  0.50000000  0.87500000  0.56250000  1
  Ni  Ni829  1  0.50000000  0.87500000  0.68750000  1
  Mn  Mn830  1  0.50000000  0.87500000  0.81250000  1
  Ni  Ni831  1  0.50000000  0.87500000  0.93750000  1
  Ni  Ni832  1  0.62500000  0.00000000  0.06250000  1
  Ni  Ni833  1  0.62500000  0.00000000  0.18750000  1
  Ni  Ni834  1  0.62500000  0.00000000  0.31250000  1
  Mn  Mn835  1  0.62500000  0.00000000  0.43750000  1
  Ni  Ni836  1  0.62500000  0.00000000  0.56250000  1
  Ni  Ni837  1  0.62500000  0.00000000  0.68750000  1
  Mn  Mn838  1  0.62500000  0.00000000  0.81250000  1
  Mn  Mn839  1  0.62500000  0.00000000  0.93750000  1
  Mn  Mn840  1  0.62500000  0.12500000  0.06250000  1
  Mn  Mn841  1  0.62500000  0.12500000  0.18750000  1
  Mn  Mn842  1  0.62500000  0.12500000  0.31250000  1
  Mn  Mn843  1  0.62500000  0.12500000  0.43750000  1
  Ni  Ni844  1  0.62500000  0.12500000  0.56250000  1
  Mn  Mn845  1  0.62500000  0.12500000  0.68750000  1
  Ni  Ni846  1  0.62500000  0.12500000  0.81250000  1
  Ni  Ni847  1  0.62500000  0.12500000  0.93750000  1
  Mn  Mn848  1  0.62500000  0.25000000  0.06250000  1
  Ni  Ni849  1  0.62500000  0.25000000  0.18750000  1
  Ni  Ni850  1  0.62500000  0.25000000  0.31250000  1
  Ni  Ni851  1  0.62500000  0.25000000  0.43750000  1
  Ni  Ni852  1  0.62500000  0.25000000  0.56250000  1
  Mn  Mn853  1  0.62500000  0.25000000  0.68750000  1
  Ni  Ni854  1  0.62500000  0.25000000  0.81250000  1
  Mn  Mn855  1  0.62500000  0.25000000  0.93750000  1
  Mn  Mn856  1  0.62500000  0.37500000  0.06250000  1
  Mn  Mn857  1  0.62500000  0.37500000  0.18750000  1
  Mn  Mn858  1  0.62500000  0.37500000  0.31250000  1
  Mn  Mn859  1  0.62500000  0.37500000  0.43750000  1
  Ni  Ni860  1  0.62500000  0.37500000  0.56250000  1
  Ni  Ni861  1  0.62500000  0.37500000  0.68750000  1
  Ni  Ni862  1  0.62500000  0.37500000  0.81250000  1
  Ni  Ni863  1  0.62500000  0.37500000  0.93750000  1
  Ni  Ni864  1  0.62500000  0.50000000  0.06250000  1
  Ni  Ni865  1  0.62500000  0.50000000  0.18750000  1
  Mn  Mn866  1  0.62500000  0.50000000  0.31250000  1
  Ni  Ni867  1  0.62500000  0.50000000  0.43750000  1
  Ni  Ni868  1  0.62500000  0.50000000  0.56250000  1
  Ni  Ni869  1  0.62500000  0.50000000  0.68750000  1
  Ni  Ni870  1  0.62500000  0.50000000  0.81250000  1
  Ni  Ni871  1  0.62500000  0.50000000  0.93750000  1
  Ni  Ni872  1  0.62500000  0.62500000  0.06250000  1
  Ni  Ni873  1  0.62500000  0.62500000  0.18750000  1
  Mn  Mn874  1  0.62500000  0.62500000  0.31250000  1
  Mn  Mn875  1  0.62500000  0.62500000  0.43750000  1
  Mn  Mn876  1  0.62500000  0.62500000  0.56250000  1
  Mn  Mn877  1  0.62500000  0.62500000  0.68750000  1
  Mn  Mn878  1  0.62500000  0.62500000  0.81250000  1
  Ni  Ni879  1  0.62500000  0.62500000  0.93750000  1
  Ni  Ni880  1  0.62500000  0.75000000  0.06250000  1
  Ni  Ni881  1  0.62500000  0.75000000  0.18750000  1
  Ni  Ni882  1  0.62500000  0.75000000  0.31250000  1
  Ni  Ni883  1  0.62500000  0.75000000  0.43750000  1
  Mn  Mn884  1  0.62500000  0.75000000  0.56250000  1
  Ni  Ni885  1  0.62500000  0.75000000  0.68750000  1
  Mn  Mn886  1  0.62500000  0.75000000  0.81250000  1
  Ni  Ni887  1  0.62500000  0.75000000  0.93750000  1
  Ni  Ni888  1  0.62500000  0.87500000  0.06250000  1
  Ni  Ni889  1  0.62500000  0.87500000  0.18750000  1
  Ni  Ni890  1  0.62500000  0.87500000  0.31250000  1
  Ni  Ni891  1  0.62500000  0.87500000  0.43750000  1
  Ni  Ni892  1  0.62500000  0.87500000  0.56250000  1
  Ni  Ni893  1  0.62500000  0.87500000  0.68750000  1
  Ni  Ni894  1  0.62500000  0.87500000  0.81250000  1
  Mn  Mn895  1  0.62500000  0.87500000  0.93750000  1
  Mn  Mn896  1  0.75000000  0.00000000  0.06250000  1
  Ni  Ni897  1  0.75000000  0.00000000  0.18750000  1
  Ni  Ni898  1  0.75000000  0.00000000  0.31250000  1
  Mn  Mn899  1  0.75000000  0.00000000  0.43750000  1
  Ni  Ni900  1  0.75000000  0.00000000  0.56250000  1
  Ni  Ni901  1  0.75000000  0.00000000  0.68750000  1
  Mn  Mn902  1  0.75000000  0.00000000  0.81250000  1
  Mn  Mn903  1  0.75000000  0.00000000  0.93750000  1
  Mn  Mn904  1  0.75000000  0.12500000  0.06250000  1
  Mn  Mn905  1  0.75000000  0.12500000  0.18750000  1
  Ni  Ni906  1  0.75000000  0.12500000  0.31250000  1
  Ni  Ni907  1  0.75000000  0.12500000  0.43750000  1
  Ni  Ni908  1  0.75000000  0.12500000  0.56250000  1
  Ni  Ni909  1  0.75000000  0.12500000  0.68750000  1
  Ni  Ni910  1  0.75000000  0.12500000  0.81250000  1
  Ni  Ni911  1  0.75000000  0.12500000  0.93750000  1
  Mn  Mn912  1  0.75000000  0.25000000  0.06250000  1
  Mn  Mn913  1  0.75000000  0.25000000  0.18750000  1
  Ni  Ni914  1  0.75000000  0.25000000  0.31250000  1
  Mn  Mn915  1  0.75000000  0.25000000  0.43750000  1
  Ni  Ni916  1  0.75000000  0.25000000  0.56250000  1
  Ni  Ni917  1  0.75000000  0.25000000  0.68750000  1
  Mn  Mn918  1  0.75000000  0.25000000  0.81250000  1
  Ni  Ni919  1  0.75000000  0.25000000  0.93750000  1
  Ni  Ni920  1  0.75000000  0.37500000  0.06250000  1
  Ni  Ni921  1  0.75000000  0.37500000  0.18750000  1
  Mn  Mn922  1  0.75000000  0.37500000  0.31250000  1
  Mn  Mn923  1  0.75000000  0.37500000  0.43750000  1
  Ni  Ni924  1  0.75000000  0.37500000  0.56250000  1
  Ni  Ni925  1  0.75000000  0.37500000  0.68750000  1
  Ni  Ni926  1  0.75000000  0.37500000  0.81250000  1
  Ni  Ni927  1  0.75000000  0.37500000  0.93750000  1
  Mn  Mn928  1  0.75000000  0.50000000  0.06250000  1
  Mn  Mn929  1  0.75000000  0.50000000  0.18750000  1
  Mn  Mn930  1  0.75000000  0.50000000  0.31250000  1
  Ni  Ni931  1  0.75000000  0.50000000  0.43750000  1
  Mn  Mn932  1  0.75000000  0.50000000  0.56250000  1
  Mn  Mn933  1  0.75000000  0.50000000  0.68750000  1
  Ni  Ni934  1  0.75000000  0.50000000  0.81250000  1
  Mn  Mn935  1  0.75000000  0.50000000  0.93750000  1
  Mn  Mn936  1  0.75000000  0.62500000  0.06250000  1
  Ni  Ni937  1  0.75000000  0.62500000  0.18750000  1
  Ni  Ni938  1  0.75000000  0.62500000  0.31250000  1
  Mn  Mn939  1  0.75000000  0.62500000  0.43750000  1
  Mn  Mn940  1  0.75000000  0.62500000  0.56250000  1
  Ni  Ni941  1  0.75000000  0.62500000  0.68750000  1
  Ni  Ni942  1  0.75000000  0.62500000  0.81250000  1
  Ni  Ni943  1  0.75000000  0.62500000  0.93750000  1
  Ni  Ni944  1  0.75000000  0.75000000  0.06250000  1
  Ni  Ni945  1  0.75000000  0.75000000  0.18750000  1
  Ni  Ni946  1  0.75000000  0.75000000  0.31250000  1
  Mn  Mn947  1  0.75000000  0.75000000  0.43750000  1
  Mn  Mn948  1  0.75000000  0.75000000  0.56250000  1
  Mn  Mn949  1  0.75000000  0.75000000  0.68750000  1
  Mn  Mn950  1  0.75000000  0.75000000  0.81250000  1
  Mn  Mn951  1  0.75000000  0.75000000  0.93750000  1
  Mn  Mn952  1  0.75000000  0.87500000  0.06250000  1
  Ni  Ni953  1  0.75000000  0.87500000  0.18750000  1
  Mn  Mn954  1  0.75000000  0.87500000  0.31250000  1
  Mn  Mn955  1  0.75000000  0.87500000  0.43750000  1
  Mn  Mn956  1  0.75000000  0.87500000  0.56250000  1
  Mn  Mn957  1  0.75000000  0.87500000  0.68750000  1
  Ni  Ni958  1  0.75000000  0.87500000  0.81250000  1
  Mn  Mn959  1  0.75000000  0.87500000  0.93750000  1
  Ni  Ni960  1  0.87500000  0.00000000  0.06250000  1
  Mn  Mn961  1  0.87500000  0.00000000  0.18750000  1
  Ni  Ni962  1  0.87500000  0.00000000  0.31250000  1
  Ni  Ni963  1  0.87500000  0.00000000  0.43750000  1
  Ni  Ni964  1  0.87500000  0.00000000  0.56250000  1
  Mn  Mn965  1  0.87500000  0.00000000  0.68750000  1
  Mn  Mn966  1  0.87500000  0.00000000  0.81250000  1
  Mn  Mn967  1  0.87500000  0.00000000  0.93750000  1
  Mn  Mn968  1  0.87500000  0.12500000  0.06250000  1
  Ni  Ni969  1  0.87500000  0.12500000  0.18750000  1
  Ni  Ni970  1  0.87500000  0.12500000  0.31250000  1
  Ni  Ni971  1  0.87500000  0.12500000  0.43750000  1
  Mn  Mn972  1  0.87500000  0.12500000  0.56250000  1
  Ni  Ni973  1  0.87500000  0.12500000  0.68750000  1
  Mn  Mn974  1  0.87500000  0.12500000  0.81250000  1
  Mn  Mn975  1  0.87500000  0.12500000  0.93750000  1
  Mn  Mn976  1  0.87500000  0.25000000  0.06250000  1
  Mn  Mn977  1  0.87500000  0.25000000  0.18750000  1
  Ni  Ni978  1  0.87500000  0.25000000  0.31250000  1
  Mn  Mn979  1  0.87500000  0.25000000  0.43750000  1
  Ni  Ni980  1  0.87500000  0.25000000  0.56250000  1
  Ni  Ni981  1  0.87500000  0.25000000  0.68750000  1
  Mn  Mn982  1  0.87500000  0.25000000  0.81250000  1
  Ni  Ni983  1  0.87500000  0.25000000  0.93750000  1
  Mn  Mn984  1  0.87500000  0.37500000  0.06250000  1
  Ni  Ni985  1  0.87500000  0.37500000  0.18750000  1
  Ni  Ni986  1  0.87500000  0.37500000  0.31250000  1
  Ni  Ni987  1  0.87500000  0.37500000  0.43750000  1
  Ni  Ni988  1  0.87500000  0.37500000  0.56250000  1
  Mn  Mn989  1  0.87500000  0.37500000  0.68750000  1
  Mn  Mn990  1  0.87500000  0.37500000  0.81250000  1
  Ni  Ni991  1  0.87500000  0.37500000  0.93750000  1
  Mn  Mn992  1  0.87500000  0.50000000  0.06250000  1
  Mn  Mn993  1  0.87500000  0.50000000  0.18750000  1
  Mn  Mn994  1  0.87500000  0.50000000  0.31250000  1
  Ni  Ni995  1  0.87500000  0.50000000  0.43750000  1
  Ni  Ni996  1  0.87500000  0.50000000  0.56250000  1
  Ni  Ni997  1  0.87500000  0.50000000  0.68750000  1
  Ni  Ni998  1  0.87500000  0.50000000  0.81250000  1
  Mn  Mn999  1  0.87500000  0.50000000  0.93750000  1
  Mn  Mn1000  1  0.87500000  0.62500000  0.06250000  1
  Mn  Mn1001  1  0.87500000  0.62500000  0.18750000  1
  Mn  Mn1002  1  0.87500000  0.62500000  0.31250000  1
  Ni  Ni1003  1  0.87500000  0.62500000  0.43750000  1
  Ni  Ni1004  1  0.87500000  0.62500000  0.56250000  1
  Ni  Ni1005  1  0.87500000  0.62500000  0.68750000  1
  Mn  Mn1006  1  0.87500000  0.62500000  0.81250000  1
  Mn  Mn1007  1  0.87500000  0.62500000  0.93750000  1
  Ni  Ni1008  1  0.87500000  0.75000000  0.06250000  1
  Mn  Mn1009  1  0.87500000  0.75000000  0.18750000  1
  Ni  Ni1010  1  0.87500000  0.75000000  0.31250000  1
  Ni  Ni1011  1  0.87500000  0.75000000  0.43750000  1
  Mn  Mn1012  1  0.87500000  0.75000000  0.56250000  1
  Ni  Ni1013  1  0.87500000  0.75000000  0.68750000  1
  Mn  Mn1014  1  0.87500000  0.75000000  0.81250000  1
  Ni  Ni1015  1  0.87500000  0.75000000  0.93750000  1
  Mn  Mn1016  1  0.87500000  0.87500000  0.06250000  1
  Ni  Ni1017  1  0.87500000  0.87500000  0.18750000  1
  Ni  Ni1018  1  0.87500000  0.87500000  0.31250000  1
  Mn  Mn1019  1  0.87500000  0.87500000  0.43750000  1
  Mn  Mn1020  1  0.87500000  0.87500000  0.56250000  1
  Ni  Ni1021  1  0.87500000  0.87500000  0.68750000  1
  Ni  Ni1022  1  0.87500000  0.87500000  0.81250000  1
  Ni  Ni1023  1  0.87500000  0.87500000  0.93750000  1
  As  As1024  1  0.08333333  0.04166667  0.09375000  1.0
  As  As1025  1  0.08333333  0.04166667  0.21875000  1.0
  As  As1026  1  0.08333333  0.04166667  0.34375000  1.0
  As  As1027  1  0.08333333  0.04166667  0.46875000  1.0
  As  As1028  1  0.08333333  0.04166667  0.59375000  1.0
  As  As1029  1  0.08333333  0.04166667  0.71875000  1.0
  As  As1030  1  0.08333333  0.04166667  0.84375000  1.0
  As  As1031  1  0.08333333  0.04166667  0.96875000  1.0
  As  As1032  1  0.08333333  0.16666667  0.09375000  1.0
  As  As1033  1  0.08333333  0.16666667  0.21875000  1.0
  As  As1034  1  0.08333333  0.16666667  0.34375000  1.0
  As  As1035  1  0.08333333  0.16666667  0.46875000  1.0
  As  As1036  1  0.08333333  0.16666667  0.59375000  1.0
  As  As1037  1  0.08333333  0.16666667  0.71875000  1.0
  As  As1038  1  0.08333333  0.16666667  0.84375000  1.0
  As  As1039  1  0.08333333  0.16666667  0.96875000  1.0
  As  As1040  1  0.08333333  0.29166667  0.09375000  1.0
  As  As1041  1  0.08333333  0.29166667  0.21875000  1.0
  As  As1042  1  0.08333333  0.29166667  0.34375000  1.0
  As  As1043  1  0.08333333  0.29166667  0.46875000  1.0
  As  As1044  1  0.08333333  0.29166667  0.59375000  1.0
  As  As1045  1  0.08333333  0.29166667  0.71875000  1.0
  As  As1046  1  0.08333333  0.29166667  0.84375000  1.0
  As  As1047  1  0.08333333  0.29166667  0.96875000  1.0
  As  As1048  1  0.08333333  0.41666667  0.09375000  1.0
  As  As1049  1  0.08333333  0.41666667  0.21875000  1.0
  As  As1050  1  0.08333333  0.41666667  0.34375000  1.0
  As  As1051  1  0.08333333  0.41666667  0.46875000  1.0
  As  As1052  1  0.08333333  0.41666667  0.59375000  1.0
  As  As1053  1  0.08333333  0.41666667  0.71875000  1.0
  As  As1054  1  0.08333333  0.41666667  0.84375000  1.0
  As  As1055  1  0.08333333  0.41666667  0.96875000  1.0
  As  As1056  1  0.08333333  0.54166667  0.09375000  1.0
  As  As1057  1  0.08333333  0.54166667  0.21875000  1.0
  As  As1058  1  0.08333333  0.54166667  0.34375000  1.0
  As  As1059  1  0.08333333  0.54166667  0.46875000  1.0
  As  As1060  1  0.08333333  0.54166667  0.59375000  1.0
  As  As1061  1  0.08333333  0.54166667  0.71875000  1.0
  As  As1062  1  0.08333333  0.54166667  0.84375000  1.0
  As  As1063  1  0.08333333  0.54166667  0.96875000  1.0
  As  As1064  1  0.08333333  0.66666667  0.09375000  1.0
  As  As1065  1  0.08333333  0.66666667  0.21875000  1.0
  As  As1066  1  0.08333333  0.66666667  0.34375000  1.0
  As  As1067  1  0.08333333  0.66666667  0.46875000  1.0
  As  As1068  1  0.08333333  0.66666667  0.59375000  1.0
  As  As1069  1  0.08333333  0.66666667  0.71875000  1.0
  As  As1070  1  0.08333333  0.66666667  0.84375000  1.0
  As  As1071  1  0.08333333  0.66666667  0.96875000  1.0
  As  As1072  1  0.08333333  0.79166667  0.09375000  1.0
  As  As1073  1  0.08333333  0.79166667  0.21875000  1.0
  As  As1074  1  0.08333333  0.79166667  0.34375000  1.0
  As  As1075  1  0.08333333  0.79166667  0.46875000  1.0
  As  As1076  1  0.08333333  0.79166667  0.59375000  1.0
  As  As1077  1  0.08333333  0.79166667  0.71875000  1.0
  As  As1078  1  0.08333333  0.79166667  0.84375000  1.0
  As  As1079  1  0.08333333  0.79166667  0.96875000  1.0
  As  As1080  1  0.08333333  0.91666667  0.09375000  1.0
  As  As1081  1  0.08333333  0.91666667  0.21875000  1.0
  As  As1082  1  0.08333333  0.91666667  0.34375000  1.0
  As  As1083  1  0.08333333  0.91666667  0.46875000  1.0
  As  As1084  1  0.08333333  0.91666667  0.59375000  1.0
  As  As1085  1  0.08333333  0.91666667  0.71875000  1.0
  As  As1086  1  0.08333333  0.91666667  0.84375000  1.0
  As  As1087  1  0.08333333  0.91666667  0.96875000  1.0
  As  As1088  1  0.20833333  0.04166667  0.09375000  1.0
  As  As1089  1  0.20833333  0.04166667  0.21875000  1.0
  As  As1090  1  0.20833333  0.04166667  0.34375000  1.0
  As  As1091  1  0.20833333  0.04166667  0.46875000  1.0
  As  As1092  1  0.20833333  0.04166667  0.59375000  1.0
  As  As1093  1  0.20833333  0.04166667  0.71875000  1.0
  As  As1094  1  0.20833333  0.04166667  0.84375000  1.0
  As  As1095  1  0.20833333  0.04166667  0.96875000  1.0
  As  As1096  1  0.20833333  0.16666667  0.09375000  1.0
  As  As1097  1  0.20833333  0.16666667  0.21875000  1.0
  As  As1098  1  0.20833333  0.16666667  0.34375000  1.0
  As  As1099  1  0.20833333  0.16666667  0.46875000  1.0
  As  As1100  1  0.20833333  0.16666667  0.59375000  1.0
  As  As1101  1  0.20833333  0.16666667  0.71875000  1.0
  As  As1102  1  0.20833333  0.16666667  0.84375000  1.0
  As  As1103  1  0.20833333  0.16666667  0.96875000  1.0
  As  As1104  1  0.20833333  0.29166667  0.09375000  1.0
  As  As1105  1  0.20833333  0.29166667  0.21875000  1.0
  As  As1106  1  0.20833333  0.29166667  0.34375000  1.0
  As  As1107  1  0.20833333  0.29166667  0.46875000  1.0
  As  As1108  1  0.20833333  0.29166667  0.59375000  1.0
  As  As1109  1  0.20833333  0.29166667  0.71875000  1.0
  As  As1110  1  0.20833333  0.29166667  0.84375000  1.0
  As  As1111  1  0.20833333  0.29166667  0.96875000  1.0
  As  As1112  1  0.20833333  0.41666667  0.09375000  1.0
  As  As1113  1  0.20833333  0.41666667  0.21875000  1.0
  As  As1114  1  0.20833333  0.41666667  0.34375000  1.0
  As  As1115  1  0.20833333  0.41666667  0.46875000  1.0
  As  As1116  1  0.20833333  0.41666667  0.59375000  1.0
  As  As1117  1  0.20833333  0.41666667  0.71875000  1.0
  As  As1118  1  0.20833333  0.41666667  0.84375000  1.0
  As  As1119  1  0.20833333  0.41666667  0.96875000  1.0
  As  As1120  1  0.20833333  0.54166667  0.09375000  1.0
  As  As1121  1  0.20833333  0.54166667  0.21875000  1.0
  As  As1122  1  0.20833333  0.54166667  0.34375000  1.0
  As  As1123  1  0.20833333  0.54166667  0.46875000  1.0
  As  As1124  1  0.20833333  0.54166667  0.59375000  1.0
  As  As1125  1  0.20833333  0.54166667  0.71875000  1.0
  As  As1126  1  0.20833333  0.54166667  0.84375000  1.0
  As  As1127  1  0.20833333  0.54166667  0.96875000  1.0
  As  As1128  1  0.20833333  0.66666667  0.09375000  1.0
  As  As1129  1  0.20833333  0.66666667  0.21875000  1.0
  As  As1130  1  0.20833333  0.66666667  0.34375000  1.0
  As  As1131  1  0.20833333  0.66666667  0.46875000  1.0
  As  As1132  1  0.20833333  0.66666667  0.59375000  1.0
  As  As1133  1  0.20833333  0.66666667  0.71875000  1.0
  As  As1134  1  0.20833333  0.66666667  0.84375000  1.0
  As  As1135  1  0.20833333  0.66666667  0.96875000  1.0
  As  As1136  1  0.20833333  0.79166667  0.09375000  1.0
  As  As1137  1  0.20833333  0.79166667  0.21875000  1.0
  As  As1138  1  0.20833333  0.79166667  0.34375000  1.0
  As  As1139  1  0.20833333  0.79166667  0.46875000  1.0
  As  As1140  1  0.20833333  0.79166667  0.59375000  1.0
  As  As1141  1  0.20833333  0.79166667  0.71875000  1.0
  As  As1142  1  0.20833333  0.79166667  0.84375000  1.0
  As  As1143  1  0.20833333  0.79166667  0.96875000  1.0
  As  As1144  1  0.20833333  0.91666667  0.09375000  1.0
  As  As1145  1  0.20833333  0.91666667  0.21875000  1.0
  As  As1146  1  0.20833333  0.91666667  0.34375000  1.0
  As  As1147  1  0.20833333  0.91666667  0.46875000  1.0
  As  As1148  1  0.20833333  0.91666667  0.59375000  1.0
  As  As1149  1  0.20833333  0.91666667  0.71875000  1.0
  As  As1150  1  0.20833333  0.91666667  0.84375000  1.0
  As  As1151  1  0.20833333  0.91666667  0.96875000  1.0
  As  As1152  1  0.33333333  0.04166667  0.09375000  1.0
  As  As1153  1  0.33333333  0.04166667  0.21875000  1.0
  As  As1154  1  0.33333333  0.04166667  0.34375000  1.0
  As  As1155  1  0.33333333  0.04166667  0.46875000  1.0
  As  As1156  1  0.33333333  0.04166667  0.59375000  1.0
  As  As1157  1  0.33333333  0.04166667  0.71875000  1.0
  As  As1158  1  0.33333333  0.04166667  0.84375000  1.0
  As  As1159  1  0.33333333  0.04166667  0.96875000  1.0
  As  As1160  1  0.33333333  0.16666667  0.09375000  1.0
  As  As1161  1  0.33333333  0.16666667  0.21875000  1.0
  As  As1162  1  0.33333333  0.16666667  0.34375000  1.0
  As  As1163  1  0.33333333  0.16666667  0.46875000  1.0
  As  As1164  1  0.33333333  0.16666667  0.59375000  1.0
  As  As1165  1  0.33333333  0.16666667  0.71875000  1.0
  As  As1166  1  0.33333333  0.16666667  0.84375000  1.0
  As  As1167  1  0.33333333  0.16666667  0.96875000  1.0
  As  As1168  1  0.33333333  0.29166667  0.09375000  1.0
  As  As1169  1  0.33333333  0.29166667  0.21875000  1.0
  As  As1170  1  0.33333333  0.29166667  0.34375000  1.0
  As  As1171  1  0.33333333  0.29166667  0.46875000  1.0
  As  As1172  1  0.33333333  0.29166667  0.59375000  1.0
  As  As1173  1  0.33333333  0.29166667  0.71875000  1.0
  As  As1174  1  0.33333333  0.29166667  0.84375000  1.0
  As  As1175  1  0.33333333  0.29166667  0.96875000  1.0
  As  As1176  1  0.33333333  0.41666667  0.09375000  1.0
  As  As1177  1  0.33333333  0.41666667  0.21875000  1.0
  As  As1178  1  0.33333333  0.41666667  0.34375000  1.0
  As  As1179  1  0.33333333  0.41666667  0.46875000  1.0
  As  As1180  1  0.33333333  0.41666667  0.59375000  1.0
  As  As1181  1  0.33333333  0.41666667  0.71875000  1.0
  As  As1182  1  0.33333333  0.41666667  0.84375000  1.0
  As  As1183  1  0.33333333  0.41666667  0.96875000  1.0
  As  As1184  1  0.33333333  0.54166667  0.09375000  1.0
  As  As1185  1  0.33333333  0.54166667  0.21875000  1.0
  As  As1186  1  0.33333333  0.54166667  0.34375000  1.0
  As  As1187  1  0.33333333  0.54166667  0.46875000  1.0
  As  As1188  1  0.33333333  0.54166667  0.59375000  1.0
  As  As1189  1  0.33333333  0.54166667  0.71875000  1.0
  As  As1190  1  0.33333333  0.54166667  0.84375000  1.0
  As  As1191  1  0.33333333  0.54166667  0.96875000  1.0
  As  As1192  1  0.33333333  0.66666667  0.09375000  1.0
  As  As1193  1  0.33333333  0.66666667  0.21875000  1.0
  As  As1194  1  0.33333333  0.66666667  0.34375000  1.0
  As  As1195  1  0.33333333  0.66666667  0.46875000  1.0
  As  As1196  1  0.33333333  0.66666667  0.59375000  1.0
  As  As1197  1  0.33333333  0.66666667  0.71875000  1.0
  As  As1198  1  0.33333333  0.66666667  0.84375000  1.0
  As  As1199  1  0.33333333  0.66666667  0.96875000  1.0
  As  As1200  1  0.33333333  0.79166667  0.09375000  1.0
  As  As1201  1  0.33333333  0.79166667  0.21875000  1.0
  As  As1202  1  0.33333333  0.79166667  0.34375000  1.0
  As  As1203  1  0.33333333  0.79166667  0.46875000  1.0
  As  As1204  1  0.33333333  0.79166667  0.59375000  1.0
  As  As1205  1  0.33333333  0.79166667  0.71875000  1.0
  As  As1206  1  0.33333333  0.79166667  0.84375000  1.0
  As  As1207  1  0.33333333  0.79166667  0.96875000  1.0
  As  As1208  1  0.33333333  0.91666667  0.09375000  1.0
  As  As1209  1  0.33333333  0.91666667  0.21875000  1.0
  As  As1210  1  0.33333333  0.91666667  0.34375000  1.0
  As  As1211  1  0.33333333  0.91666667  0.46875000  1.0
  As  As1212  1  0.33333333  0.91666667  0.59375000  1.0
  As  As1213  1  0.33333333  0.91666667  0.71875000  1.0
  As  As1214  1  0.33333333  0.91666667  0.84375000  1.0
  As  As1215  1  0.33333333  0.91666667  0.96875000  1.0
  As  As1216  1  0.45833333  0.04166667  0.09375000  1.0
  As  As1217  1  0.45833333  0.04166667  0.21875000  1.0
  As  As1218  1  0.45833333  0.04166667  0.34375000  1.0
  As  As1219  1  0.45833333  0.04166667  0.46875000  1.0
  As  As1220  1  0.45833333  0.04166667  0.59375000  1.0
  As  As1221  1  0.45833333  0.04166667  0.71875000  1.0
  As  As1222  1  0.45833333  0.04166667  0.84375000  1.0
  As  As1223  1  0.45833333  0.04166667  0.96875000  1.0
  As  As1224  1  0.45833333  0.16666667  0.09375000  1.0
  As  As1225  1  0.45833333  0.16666667  0.21875000  1.0
  As  As1226  1  0.45833333  0.16666667  0.34375000  1.0
  As  As1227  1  0.45833333  0.16666667  0.46875000  1.0
  As  As1228  1  0.45833333  0.16666667  0.59375000  1.0
  As  As1229  1  0.45833333  0.16666667  0.71875000  1.0
  As  As1230  1  0.45833333  0.16666667  0.84375000  1.0
  As  As1231  1  0.45833333  0.16666667  0.96875000  1.0
  As  As1232  1  0.45833333  0.29166667  0.09375000  1.0
  As  As1233  1  0.45833333  0.29166667  0.21875000  1.0
  As  As1234  1  0.45833333  0.29166667  0.34375000  1.0
  As  As1235  1  0.45833333  0.29166667  0.46875000  1.0
  As  As1236  1  0.45833333  0.29166667  0.59375000  1.0
  As  As1237  1  0.45833333  0.29166667  0.71875000  1.0
  As  As1238  1  0.45833333  0.29166667  0.84375000  1.0
  As  As1239  1  0.45833333  0.29166667  0.96875000  1.0
  As  As1240  1  0.45833333  0.41666667  0.09375000  1.0
  As  As1241  1  0.45833333  0.41666667  0.21875000  1.0
  As  As1242  1  0.45833333  0.41666667  0.34375000  1.0
  As  As1243  1  0.45833333  0.41666667  0.46875000  1.0
  As  As1244  1  0.45833333  0.41666667  0.59375000  1.0
  As  As1245  1  0.45833333  0.41666667  0.71875000  1.0
  As  As1246  1  0.45833333  0.41666667  0.84375000  1.0
  As  As1247  1  0.45833333  0.41666667  0.96875000  1.0
  As  As1248  1  0.45833333  0.54166667  0.09375000  1.0
  As  As1249  1  0.45833333  0.54166667  0.21875000  1.0
  As  As1250  1  0.45833333  0.54166667  0.34375000  1.0
  As  As1251  1  0.45833333  0.54166667  0.46875000  1.0
  As  As1252  1  0.45833333  0.54166667  0.59375000  1.0
  As  As1253  1  0.45833333  0.54166667  0.71875000  1.0
  As  As1254  1  0.45833333  0.54166667  0.84375000  1.0
  As  As1255  1  0.45833333  0.54166667  0.96875000  1.0
  As  As1256  1  0.45833333  0.66666667  0.09375000  1.0
  As  As1257  1  0.45833333  0.66666667  0.21875000  1.0
  As  As1258  1  0.45833333  0.66666667  0.34375000  1.0
  As  As1259  1  0.45833333  0.66666667  0.46875000  1.0
  As  As1260  1  0.45833333  0.66666667  0.59375000  1.0
  As  As1261  1  0.45833333  0.66666667  0.71875000  1.0
  As  As1262  1  0.45833333  0.66666667  0.84375000  1.0
  As  As1263  1  0.45833333  0.66666667  0.96875000  1.0
  As  As1264  1  0.45833333  0.79166667  0.09375000  1.0
  As  As1265  1  0.45833333  0.79166667  0.21875000  1.0
  As  As1266  1  0.45833333  0.79166667  0.34375000  1.0
  As  As1267  1  0.45833333  0.79166667  0.46875000  1.0
  As  As1268  1  0.45833333  0.79166667  0.59375000  1.0
  As  As1269  1  0.45833333  0.79166667  0.71875000  1.0
  As  As1270  1  0.45833333  0.79166667  0.84375000  1.0
  As  As1271  1  0.45833333  0.79166667  0.96875000  1.0
  As  As1272  1  0.45833333  0.91666667  0.09375000  1.0
  As  As1273  1  0.45833333  0.91666667  0.21875000  1.0
  As  As1274  1  0.45833333  0.91666667  0.34375000  1.0
  As  As1275  1  0.45833333  0.91666667  0.46875000  1.0
  As  As1276  1  0.45833333  0.91666667  0.59375000  1.0
  As  As1277  1  0.45833333  0.91666667  0.71875000  1.0
  As  As1278  1  0.45833333  0.91666667  0.84375000  1.0
  As  As1279  1  0.45833333  0.91666667  0.96875000  1.0
  As  As1280  1  0.58333333  0.04166667  0.09375000  1.0
  As  As1281  1  0.58333333  0.04166667  0.21875000  1.0
  As  As1282  1  0.58333333  0.04166667  0.34375000  1.0
  As  As1283  1  0.58333333  0.04166667  0.46875000  1.0
  As  As1284  1  0.58333333  0.04166667  0.59375000  1.0
  As  As1285  1  0.58333333  0.04166667  0.71875000  1.0
  As  As1286  1  0.58333333  0.04166667  0.84375000  1.0
  As  As1287  1  0.58333333  0.04166667  0.96875000  1.0
  As  As1288  1  0.58333333  0.16666667  0.09375000  1.0
  As  As1289  1  0.58333333  0.16666667  0.21875000  1.0
  As  As1290  1  0.58333333  0.16666667  0.34375000  1.0
  As  As1291  1  0.58333333  0.16666667  0.46875000  1.0
  As  As1292  1  0.58333333  0.16666667  0.59375000  1.0
  As  As1293  1  0.58333333  0.16666667  0.71875000  1.0
  As  As1294  1  0.58333333  0.16666667  0.84375000  1.0
  As  As1295  1  0.58333333  0.16666667  0.96875000  1.0
  As  As1296  1  0.58333333  0.29166667  0.09375000  1.0
  As  As1297  1  0.58333333  0.29166667  0.21875000  1.0
  As  As1298  1  0.58333333  0.29166667  0.34375000  1.0
  As  As1299  1  0.58333333  0.29166667  0.46875000  1.0
  As  As1300  1  0.58333333  0.29166667  0.59375000  1.0
  As  As1301  1  0.58333333  0.29166667  0.71875000  1.0
  As  As1302  1  0.58333333  0.29166667  0.84375000  1.0
  As  As1303  1  0.58333333  0.29166667  0.96875000  1.0
  As  As1304  1  0.58333333  0.41666667  0.09375000  1.0
  As  As1305  1  0.58333333  0.41666667  0.21875000  1.0
  As  As1306  1  0.58333333  0.41666667  0.34375000  1.0
  As  As1307  1  0.58333333  0.41666667  0.46875000  1.0
  As  As1308  1  0.58333333  0.41666667  0.59375000  1.0
  As  As1309  1  0.58333333  0.41666667  0.71875000  1.0
  As  As1310  1  0.58333333  0.41666667  0.84375000  1.0
  As  As1311  1  0.58333333  0.41666667  0.96875000  1.0
  As  As1312  1  0.58333333  0.54166667  0.09375000  1.0
  As  As1313  1  0.58333333  0.54166667  0.21875000  1.0
  As  As1314  1  0.58333333  0.54166667  0.34375000  1.0
  As  As1315  1  0.58333333  0.54166667  0.46875000  1.0
  As  As1316  1  0.58333333  0.54166667  0.59375000  1.0
  As  As1317  1  0.58333333  0.54166667  0.71875000  1.0
  As  As1318  1  0.58333333  0.54166667  0.84375000  1.0
  As  As1319  1  0.58333333  0.54166667  0.96875000  1.0
  As  As1320  1  0.58333333  0.66666667  0.09375000  1.0
  As  As1321  1  0.58333333  0.66666667  0.21875000  1.0
  As  As1322  1  0.58333333  0.66666667  0.34375000  1.0
  As  As1323  1  0.58333333  0.66666667  0.46875000  1.0
  As  As1324  1  0.58333333  0.66666667  0.59375000  1.0
  As  As1325  1  0.58333333  0.66666667  0.71875000  1.0
  As  As1326  1  0.58333333  0.66666667  0.84375000  1.0
  As  As1327  1  0.58333333  0.66666667  0.96875000  1.0
  As  As1328  1  0.58333333  0.79166667  0.09375000  1.0
  As  As1329  1  0.58333333  0.79166667  0.21875000  1.0
  As  As1330  1  0.58333333  0.79166667  0.34375000  1.0
  As  As1331  1  0.58333333  0.79166667  0.46875000  1.0
  As  As1332  1  0.58333333  0.79166667  0.59375000  1.0
  As  As1333  1  0.58333333  0.79166667  0.71875000  1.0
  As  As1334  1  0.58333333  0.79166667  0.84375000  1.0
  As  As1335  1  0.58333333  0.79166667  0.96875000  1.0
  As  As1336  1  0.58333333  0.91666667  0.09375000  1.0
  As  As1337  1  0.58333333  0.91666667  0.21875000  1.0
  As  As1338  1  0.58333333  0.91666667  0.34375000  1.0
  As  As1339  1  0.58333333  0.91666667  0.46875000  1.0
  As  As1340  1  0.58333333  0.91666667  0.59375000  1.0
  As  As1341  1  0.58333333  0.91666667  0.71875000  1.0
  As  As1342  1  0.58333333  0.91666667  0.84375000  1.0
  As  As1343  1  0.58333333  0.91666667  0.96875000  1.0
  As  As1344  1  0.70833333  0.04166667  0.09375000  1.0
  As  As1345  1  0.70833333  0.04166667  0.21875000  1.0
  As  As1346  1  0.70833333  0.04166667  0.34375000  1.0
  As  As1347  1  0.70833333  0.04166667  0.46875000  1.0
  As  As1348  1  0.70833333  0.04166667  0.59375000  1.0
  As  As1349  1  0.70833333  0.04166667  0.71875000  1.0
  As  As1350  1  0.70833333  0.04166667  0.84375000  1.0
  As  As1351  1  0.70833333  0.04166667  0.96875000  1.0
  As  As1352  1  0.70833333  0.16666667  0.09375000  1.0
  As  As1353  1  0.70833333  0.16666667  0.21875000  1.0
  As  As1354  1  0.70833333  0.16666667  0.34375000  1.0
  As  As1355  1  0.70833333  0.16666667  0.46875000  1.0
  As  As1356  1  0.70833333  0.16666667  0.59375000  1.0
  As  As1357  1  0.70833333  0.16666667  0.71875000  1.0
  As  As1358  1  0.70833333  0.16666667  0.84375000  1.0
  As  As1359  1  0.70833333  0.16666667  0.96875000  1.0
  As  As1360  1  0.70833333  0.29166667  0.09375000  1.0
  As  As1361  1  0.70833333  0.29166667  0.21875000  1.0
  As  As1362  1  0.70833333  0.29166667  0.34375000  1.0
  As  As1363  1  0.70833333  0.29166667  0.46875000  1.0
  As  As1364  1  0.70833333  0.29166667  0.59375000  1.0
  As  As1365  1  0.70833333  0.29166667  0.71875000  1.0
  As  As1366  1  0.70833333  0.29166667  0.84375000  1.0
  As  As1367  1  0.70833333  0.29166667  0.96875000  1.0
  As  As1368  1  0.70833333  0.41666667  0.09375000  1.0
  As  As1369  1  0.70833333  0.41666667  0.21875000  1.0
  As  As1370  1  0.70833333  0.41666667  0.34375000  1.0
  As  As1371  1  0.70833333  0.41666667  0.46875000  1.0
  As  As1372  1  0.70833333  0.41666667  0.59375000  1.0
  As  As1373  1  0.70833333  0.41666667  0.71875000  1.0
  As  As1374  1  0.70833333  0.41666667  0.84375000  1.0
  As  As1375  1  0.70833333  0.41666667  0.96875000  1.0
  As  As1376  1  0.70833333  0.54166667  0.09375000  1.0
  As  As1377  1  0.70833333  0.54166667  0.21875000  1.0
  As  As1378  1  0.70833333  0.54166667  0.34375000  1.0
  As  As1379  1  0.70833333  0.54166667  0.46875000  1.0
  As  As1380  1  0.70833333  0.54166667  0.59375000  1.0
  As  As1381  1  0.70833333  0.54166667  0.71875000  1.0
  As  As1382  1  0.70833333  0.54166667  0.84375000  1.0
  As  As1383  1  0.70833333  0.54166667  0.96875000  1.0
  As  As1384  1  0.70833333  0.66666667  0.09375000  1.0
  As  As1385  1  0.70833333  0.66666667  0.21875000  1.0
  As  As1386  1  0.70833333  0.66666667  0.34375000  1.0
  As  As1387  1  0.70833333  0.66666667  0.46875000  1.0
  As  As1388  1  0.70833333  0.66666667  0.59375000  1.0
  As  As1389  1  0.70833333  0.66666667  0.71875000  1.0
  As  As1390  1  0.70833333  0.66666667  0.84375000  1.0
  As  As1391  1  0.70833333  0.66666667  0.96875000  1.0
  As  As1392  1  0.70833333  0.79166667  0.09375000  1.0
  As  As1393  1  0.70833333  0.79166667  0.21875000  1.0
  As  As1394  1  0.70833333  0.79166667  0.34375000  1.0
  As  As1395  1  0.70833333  0.79166667  0.46875000  1.0
  As  As1396  1  0.70833333  0.79166667  0.59375000  1.0
  As  As1397  1  0.70833333  0.79166667  0.71875000  1.0
  As  As1398  1  0.70833333  0.79166667  0.84375000  1.0
  As  As1399  1  0.70833333  0.79166667  0.96875000  1.0
  As  As1400  1  0.70833333  0.91666667  0.09375000  1.0
  As  As1401  1  0.70833333  0.91666667  0.21875000  1.0
  As  As1402  1  0.70833333  0.91666667  0.34375000  1.0
  As  As1403  1  0.70833333  0.91666667  0.46875000  1.0
  As  As1404  1  0.70833333  0.91666667  0.59375000  1.0
  As  As1405  1  0.70833333  0.91666667  0.71875000  1.0
  As  As1406  1  0.70833333  0.91666667  0.84375000  1.0
  As  As1407  1  0.70833333  0.91666667  0.96875000  1.0
  As  As1408  1  0.83333333  0.04166667  0.09375000  1.0
  As  As1409  1  0.83333333  0.04166667  0.21875000  1.0
  As  As1410  1  0.83333333  0.04166667  0.34375000  1.0
  As  As1411  1  0.83333333  0.04166667  0.46875000  1.0
  As  As1412  1  0.83333333  0.04166667  0.59375000  1.0
  As  As1413  1  0.83333333  0.04166667  0.71875000  1.0
  As  As1414  1  0.83333333  0.04166667  0.84375000  1.0
  As  As1415  1  0.83333333  0.04166667  0.96875000  1.0
  As  As1416  1  0.83333333  0.16666667  0.09375000  1.0
  As  As1417  1  0.83333333  0.16666667  0.21875000  1.0
  As  As1418  1  0.83333333  0.16666667  0.34375000  1.0
  As  As1419  1  0.83333333  0.16666667  0.46875000  1.0
  As  As1420  1  0.83333333  0.16666667  0.59375000  1.0
  As  As1421  1  0.83333333  0.16666667  0.71875000  1.0
  As  As1422  1  0.83333333  0.16666667  0.84375000  1.0
  As  As1423  1  0.83333333  0.16666667  0.96875000  1.0
  As  As1424  1  0.83333333  0.29166667  0.09375000  1.0
  As  As1425  1  0.83333333  0.29166667  0.21875000  1.0
  As  As1426  1  0.83333333  0.29166667  0.34375000  1.0
  As  As1427  1  0.83333333  0.29166667  0.46875000  1.0
  As  As1428  1  0.83333333  0.29166667  0.59375000  1.0
  As  As1429  1  0.83333333  0.29166667  0.71875000  1.0
  As  As1430  1  0.83333333  0.29166667  0.84375000  1.0
  As  As1431  1  0.83333333  0.29166667  0.96875000  1.0
  As  As1432  1  0.83333333  0.41666667  0.09375000  1.0
  As  As1433  1  0.83333333  0.41666667  0.21875000  1.0
  As  As1434  1  0.83333333  0.41666667  0.34375000  1.0
  As  As1435  1  0.83333333  0.41666667  0.46875000  1.0
  As  As1436  1  0.83333333  0.41666667  0.59375000  1.0
  As  As1437  1  0.83333333  0.41666667  0.71875000  1.0
  As  As1438  1  0.83333333  0.41666667  0.84375000  1.0
  As  As1439  1  0.83333333  0.41666667  0.96875000  1.0
  As  As1440  1  0.83333333  0.54166667  0.09375000  1.0
  As  As1441  1  0.83333333  0.54166667  0.21875000  1.0
  As  As1442  1  0.83333333  0.54166667  0.34375000  1.0
  As  As1443  1  0.83333333  0.54166667  0.46875000  1.0
  As  As1444  1  0.83333333  0.54166667  0.59375000  1.0
  As  As1445  1  0.83333333  0.54166667  0.71875000  1.0
  As  As1446  1  0.83333333  0.54166667  0.84375000  1.0
  As  As1447  1  0.83333333  0.54166667  0.96875000  1.0
  As  As1448  1  0.83333333  0.66666667  0.09375000  1.0
  As  As1449  1  0.83333333  0.66666667  0.21875000  1.0
  As  As1450  1  0.83333333  0.66666667  0.34375000  1.0
  As  As1451  1  0.83333333  0.66666667  0.46875000  1.0
  As  As1452  1  0.83333333  0.66666667  0.59375000  1.0
  As  As1453  1  0.83333333  0.66666667  0.71875000  1.0
  As  As1454  1  0.83333333  0.66666667  0.84375000  1.0
  As  As1455  1  0.83333333  0.66666667  0.96875000  1.0
  As  As1456  1  0.83333333  0.79166667  0.09375000  1.0
  As  As1457  1  0.83333333  0.79166667  0.21875000  1.0
  As  As1458  1  0.83333333  0.79166667  0.34375000  1.0
  As  As1459  1  0.83333333  0.79166667  0.46875000  1.0
  As  As1460  1  0.83333333  0.79166667  0.59375000  1.0
  As  As1461  1  0.83333333  0.79166667  0.71875000  1.0
  As  As1462  1  0.83333333  0.79166667  0.84375000  1.0
  As  As1463  1  0.83333333  0.79166667  0.96875000  1.0
  As  As1464  1  0.83333333  0.91666667  0.09375000  1.0
  As  As1465  1  0.83333333  0.91666667  0.21875000  1.0
  As  As1466  1  0.83333333  0.91666667  0.34375000  1.0
  As  As1467  1  0.83333333  0.91666667  0.46875000  1.0
  As  As1468  1  0.83333333  0.91666667  0.59375000  1.0
  As  As1469  1  0.83333333  0.91666667  0.71875000  1.0
  As  As1470  1  0.83333333  0.91666667  0.84375000  1.0
  As  As1471  1  0.83333333  0.91666667  0.96875000  1.0
  As  As1472  1  0.95833333  0.04166667  0.09375000  1.0
  As  As1473  1  0.95833333  0.04166667  0.21875000  1.0
  As  As1474  1  0.95833333  0.04166667  0.34375000  1.0
  As  As1475  1  0.95833333  0.04166667  0.46875000  1.0
  As  As1476  1  0.95833333  0.04166667  0.59375000  1.0
  As  As1477  1  0.95833333  0.04166667  0.71875000  1.0
  As  As1478  1  0.95833333  0.04166667  0.84375000  1.0
  As  As1479  1  0.95833333  0.04166667  0.96875000  1.0
  As  As1480  1  0.95833333  0.16666667  0.09375000  1.0
  As  As1481  1  0.95833333  0.16666667  0.21875000  1.0
  As  As1482  1  0.95833333  0.16666667  0.34375000  1.0
  As  As1483  1  0.95833333  0.16666667  0.46875000  1.0
  As  As1484  1  0.95833333  0.16666667  0.59375000  1.0
  As  As1485  1  0.95833333  0.16666667  0.71875000  1.0
  As  As1486  1  0.95833333  0.16666667  0.84375000  1.0
  As  As1487  1  0.95833333  0.16666667  0.96875000  1.0
  As  As1488  1  0.95833333  0.29166667  0.09375000  1.0
  As  As1489  1  0.95833333  0.29166667  0.21875000  1.0
  As  As1490  1  0.95833333  0.29166667  0.34375000  1.0
  As  As1491  1  0.95833333  0.29166667  0.46875000  1.0
  As  As1492  1  0.95833333  0.29166667  0.59375000  1.0
  As  As1493  1  0.95833333  0.29166667  0.71875000  1.0
  As  As1494  1  0.95833333  0.29166667  0.84375000  1.0
  As  As1495  1  0.95833333  0.29166667  0.96875000  1.0
  As  As1496  1  0.95833333  0.41666667  0.09375000  1.0
  As  As1497  1  0.95833333  0.41666667  0.21875000  1.0
  As  As1498  1  0.95833333  0.41666667  0.34375000  1.0
  As  As1499  1  0.95833333  0.41666667  0.46875000  1.0
  As  As1500  1  0.95833333  0.41666667  0.59375000  1.0
  As  As1501  1  0.95833333  0.41666667  0.71875000  1.0
  As  As1502  1  0.95833333  0.41666667  0.84375000  1.0
  As  As1503  1  0.95833333  0.41666667  0.96875000  1.0
  As  As1504  1  0.95833333  0.54166667  0.09375000  1.0
  As  As1505  1  0.95833333  0.54166667  0.21875000  1.0
  As  As1506  1  0.95833333  0.54166667  0.34375000  1.0
  As  As1507  1  0.95833333  0.54166667  0.46875000  1.0
  As  As1508  1  0.95833333  0.54166667  0.59375000  1.0
  As  As1509  1  0.95833333  0.54166667  0.71875000  1.0
  As  As1510  1  0.95833333  0.54166667  0.84375000  1.0
  As  As1511  1  0.95833333  0.54166667  0.96875000  1.0
  As  As1512  1  0.95833333  0.66666667  0.09375000  1.0
  As  As1513  1  0.95833333  0.66666667  0.21875000  1.0
  As  As1514  1  0.95833333  0.66666667  0.34375000  1.0
  As  As1515  1  0.95833333  0.66666667  0.46875000  1.0
  As  As1516  1  0.95833333  0.66666667  0.59375000  1.0
  As  As1517  1  0.95833333  0.66666667  0.71875000  1.0
  As  As1518  1  0.95833333  0.66666667  0.84375000  1.0
  As  As1519  1  0.95833333  0.66666667  0.96875000  1.0
  As  As1520  1  0.95833333  0.79166667  0.09375000  1.0
  As  As1521  1  0.95833333  0.79166667  0.21875000  1.0
  As  As1522  1  0.95833333  0.79166667  0.34375000  1.0
  As  As1523  1  0.95833333  0.79166667  0.46875000  1.0
  As  As1524  1  0.95833333  0.79166667  0.59375000  1.0
  As  As1525  1  0.95833333  0.79166667  0.71875000  1.0
  As  As1526  1  0.95833333  0.79166667  0.84375000  1.0
  As  As1527  1  0.95833333  0.79166667  0.96875000  1.0
  As  As1528  1  0.95833333  0.91666667  0.09375000  1.0
  As  As1529  1  0.95833333  0.91666667  0.21875000  1.0
  As  As1530  1  0.95833333  0.91666667  0.34375000  1.0
  As  As1531  1  0.95833333  0.91666667  0.46875000  1.0
  As  As1532  1  0.95833333  0.91666667  0.59375000  1.0
  As  As1533  1  0.95833333  0.91666667  0.71875000  1.0
  As  As1534  1  0.95833333  0.91666667  0.84375000  1.0
  As  As1535  1  0.95833333  0.91666667  0.96875000  1.0
  As  As1536  1  0.04166667  0.08333333  0.03125000  1.0
  As  As1537  1  0.04166667  0.08333333  0.15625000  1.0
  As  As1538  1  0.04166667  0.08333333  0.28125000  1.0
  As  As1539  1  0.04166667  0.08333333  0.40625000  1.0
  As  As1540  1  0.04166667  0.08333333  0.53125000  1.0
  As  As1541  1  0.04166667  0.08333333  0.65625000  1.0
  As  As1542  1  0.04166667  0.08333333  0.78125000  1.0
  As  As1543  1  0.04166667  0.08333333  0.90625000  1.0
  As  As1544  1  0.04166667  0.20833333  0.03125000  1.0
  As  As1545  1  0.04166667  0.20833333  0.15625000  1.0
  As  As1546  1  0.04166667  0.20833333  0.28125000  1.0
  As  As1547  1  0.04166667  0.20833333  0.40625000  1.0
  As  As1548  1  0.04166667  0.20833333  0.53125000  1.0
  As  As1549  1  0.04166667  0.20833333  0.65625000  1.0
  As  As1550  1  0.04166667  0.20833333  0.78125000  1.0
  As  As1551  1  0.04166667  0.20833333  0.90625000  1.0
  As  As1552  1  0.04166667  0.33333333  0.03125000  1.0
  As  As1553  1  0.04166667  0.33333333  0.15625000  1.0
  As  As1554  1  0.04166667  0.33333333  0.28125000  1.0
  As  As1555  1  0.04166667  0.33333333  0.40625000  1.0
  As  As1556  1  0.04166667  0.33333333  0.53125000  1.0
  As  As1557  1  0.04166667  0.33333333  0.65625000  1.0
  As  As1558  1  0.04166667  0.33333333  0.78125000  1.0
  As  As1559  1  0.04166667  0.33333333  0.90625000  1.0
  As  As1560  1  0.04166667  0.45833333  0.03125000  1.0
  As  As1561  1  0.04166667  0.45833333  0.15625000  1.0
  As  As1562  1  0.04166667  0.45833333  0.28125000  1.0
  As  As1563  1  0.04166667  0.45833333  0.40625000  1.0
  As  As1564  1  0.04166667  0.45833333  0.53125000  1.0
  As  As1565  1  0.04166667  0.45833333  0.65625000  1.0
  As  As1566  1  0.04166667  0.45833333  0.78125000  1.0
  As  As1567  1  0.04166667  0.45833333  0.90625000  1.0
  As  As1568  1  0.04166667  0.58333333  0.03125000  1.0
  As  As1569  1  0.04166667  0.58333333  0.15625000  1.0
  As  As1570  1  0.04166667  0.58333333  0.28125000  1.0
  As  As1571  1  0.04166667  0.58333333  0.40625000  1.0
  As  As1572  1  0.04166667  0.58333333  0.53125000  1.0
  As  As1573  1  0.04166667  0.58333333  0.65625000  1.0
  As  As1574  1  0.04166667  0.58333333  0.78125000  1.0
  As  As1575  1  0.04166667  0.58333333  0.90625000  1.0
  As  As1576  1  0.04166667  0.70833333  0.03125000  1.0
  As  As1577  1  0.04166667  0.70833333  0.15625000  1.0
  As  As1578  1  0.04166667  0.70833333  0.28125000  1.0
  As  As1579  1  0.04166667  0.70833333  0.40625000  1.0
  As  As1580  1  0.04166667  0.70833333  0.53125000  1.0
  As  As1581  1  0.04166667  0.70833333  0.65625000  1.0
  As  As1582  1  0.04166667  0.70833333  0.78125000  1.0
  As  As1583  1  0.04166667  0.70833333  0.90625000  1.0
  As  As1584  1  0.04166667  0.83333333  0.03125000  1.0
  As  As1585  1  0.04166667  0.83333333  0.15625000  1.0
  As  As1586  1  0.04166667  0.83333333  0.28125000  1.0
  As  As1587  1  0.04166667  0.83333333  0.40625000  1.0
  As  As1588  1  0.04166667  0.83333333  0.53125000  1.0
  As  As1589  1  0.04166667  0.83333333  0.65625000  1.0
  As  As1590  1  0.04166667  0.83333333  0.78125000  1.0
  As  As1591  1  0.04166667  0.83333333  0.90625000  1.0
  As  As1592  1  0.04166667  0.95833333  0.03125000  1.0
  As  As1593  1  0.04166667  0.95833333  0.15625000  1.0
  As  As1594  1  0.04166667  0.95833333  0.28125000  1.0
  As  As1595  1  0.04166667  0.95833333  0.40625000  1.0
  As  As1596  1  0.04166667  0.95833333  0.53125000  1.0
  As  As1597  1  0.04166667  0.95833333  0.65625000  1.0
  As  As1598  1  0.04166667  0.95833333  0.78125000  1.0
  As  As1599  1  0.04166667  0.95833333  0.90625000  1.0
  As  As1600  1  0.16666667  0.08333333  0.03125000  1.0
  As  As1601  1  0.16666667  0.08333333  0.15625000  1.0
  As  As1602  1  0.16666667  0.08333333  0.28125000  1.0
  As  As1603  1  0.16666667  0.08333333  0.40625000  1.0
  As  As1604  1  0.16666667  0.08333333  0.53125000  1.0
  As  As1605  1  0.16666667  0.08333333  0.65625000  1.0
  As  As1606  1  0.16666667  0.08333333  0.78125000  1.0
  As  As1607  1  0.16666667  0.08333333  0.90625000  1.0
  As  As1608  1  0.16666667  0.20833333  0.03125000  1.0
  As  As1609  1  0.16666667  0.20833333  0.15625000  1.0
  As  As1610  1  0.16666667  0.20833333  0.28125000  1.0
  As  As1611  1  0.16666667  0.20833333  0.40625000  1.0
  As  As1612  1  0.16666667  0.20833333  0.53125000  1.0
  As  As1613  1  0.16666667  0.20833333  0.65625000  1.0
  As  As1614  1  0.16666667  0.20833333  0.78125000  1.0
  As  As1615  1  0.16666667  0.20833333  0.90625000  1.0
  As  As1616  1  0.16666667  0.33333333  0.03125000  1.0
  As  As1617  1  0.16666667  0.33333333  0.15625000  1.0
  As  As1618  1  0.16666667  0.33333333  0.28125000  1.0
  As  As1619  1  0.16666667  0.33333333  0.40625000  1.0
  As  As1620  1  0.16666667  0.33333333  0.53125000  1.0
  As  As1621  1  0.16666667  0.33333333  0.65625000  1.0
  As  As1622  1  0.16666667  0.33333333  0.78125000  1.0
  As  As1623  1  0.16666667  0.33333333  0.90625000  1.0
  As  As1624  1  0.16666667  0.45833333  0.03125000  1.0
  As  As1625  1  0.16666667  0.45833333  0.15625000  1.0
  As  As1626  1  0.16666667  0.45833333  0.28125000  1.0
  As  As1627  1  0.16666667  0.45833333  0.40625000  1.0
  As  As1628  1  0.16666667  0.45833333  0.53125000  1.0
  As  As1629  1  0.16666667  0.45833333  0.65625000  1.0
  As  As1630  1  0.16666667  0.45833333  0.78125000  1.0
  As  As1631  1  0.16666667  0.45833333  0.90625000  1.0
  As  As1632  1  0.16666667  0.58333333  0.03125000  1.0
  As  As1633  1  0.16666667  0.58333333  0.15625000  1.0
  As  As1634  1  0.16666667  0.58333333  0.28125000  1.0
  As  As1635  1  0.16666667  0.58333333  0.40625000  1.0
  As  As1636  1  0.16666667  0.58333333  0.53125000  1.0
  As  As1637  1  0.16666667  0.58333333  0.65625000  1.0
  As  As1638  1  0.16666667  0.58333333  0.78125000  1.0
  As  As1639  1  0.16666667  0.58333333  0.90625000  1.0
  As  As1640  1  0.16666667  0.70833333  0.03125000  1.0
  As  As1641  1  0.16666667  0.70833333  0.15625000  1.0
  As  As1642  1  0.16666667  0.70833333  0.28125000  1.0
  As  As1643  1  0.16666667  0.70833333  0.40625000  1.0
  As  As1644  1  0.16666667  0.70833333  0.53125000  1.0
  As  As1645  1  0.16666667  0.70833333  0.65625000  1.0
  As  As1646  1  0.16666667  0.70833333  0.78125000  1.0
  As  As1647  1  0.16666667  0.70833333  0.90625000  1.0
  As  As1648  1  0.16666667  0.83333333  0.03125000  1.0
  As  As1649  1  0.16666667  0.83333333  0.15625000  1.0
  As  As1650  1  0.16666667  0.83333333  0.28125000  1.0
  As  As1651  1  0.16666667  0.83333333  0.40625000  1.0
  As  As1652  1  0.16666667  0.83333333  0.53125000  1.0
  As  As1653  1  0.16666667  0.83333333  0.65625000  1.0
  As  As1654  1  0.16666667  0.83333333  0.78125000  1.0
  As  As1655  1  0.16666667  0.83333333  0.90625000  1.0
  As  As1656  1  0.16666667  0.95833333  0.03125000  1.0
  As  As1657  1  0.16666667  0.95833333  0.15625000  1.0
  As  As1658  1  0.16666667  0.95833333  0.28125000  1.0
  As  As1659  1  0.16666667  0.95833333  0.40625000  1.0
  As  As1660  1  0.16666667  0.95833333  0.53125000  1.0
  As  As1661  1  0.16666667  0.95833333  0.65625000  1.0
  As  As1662  1  0.16666667  0.95833333  0.78125000  1.0
  As  As1663  1  0.16666667  0.95833333  0.90625000  1.0
  As  As1664  1  0.29166667  0.08333333  0.03125000  1.0
  As  As1665  1  0.29166667  0.08333333  0.15625000  1.0
  As  As1666  1  0.29166667  0.08333333  0.28125000  1.0
  As  As1667  1  0.29166667  0.08333333  0.40625000  1.0
  As  As1668  1  0.29166667  0.08333333  0.53125000  1.0
  As  As1669  1  0.29166667  0.08333333  0.65625000  1.0
  As  As1670  1  0.29166667  0.08333333  0.78125000  1.0
  As  As1671  1  0.29166667  0.08333333  0.90625000  1.0
  As  As1672  1  0.29166667  0.20833333  0.03125000  1.0
  As  As1673  1  0.29166667  0.20833333  0.15625000  1.0
  As  As1674  1  0.29166667  0.20833333  0.28125000  1.0
  As  As1675  1  0.29166667  0.20833333  0.40625000  1.0
  As  As1676  1  0.29166667  0.20833333  0.53125000  1.0
  As  As1677  1  0.29166667  0.20833333  0.65625000  1.0
  As  As1678  1  0.29166667  0.20833333  0.78125000  1.0
  As  As1679  1  0.29166667  0.20833333  0.90625000  1.0
  As  As1680  1  0.29166667  0.33333333  0.03125000  1.0
  As  As1681  1  0.29166667  0.33333333  0.15625000  1.0
  As  As1682  1  0.29166667  0.33333333  0.28125000  1.0
  As  As1683  1  0.29166667  0.33333333  0.40625000  1.0
  As  As1684  1  0.29166667  0.33333333  0.53125000  1.0
  As  As1685  1  0.29166667  0.33333333  0.65625000  1.0
  As  As1686  1  0.29166667  0.33333333  0.78125000  1.0
  As  As1687  1  0.29166667  0.33333333  0.90625000  1.0
  As  As1688  1  0.29166667  0.45833333  0.03125000  1.0
  As  As1689  1  0.29166667  0.45833333  0.15625000  1.0
  As  As1690  1  0.29166667  0.45833333  0.28125000  1.0
  As  As1691  1  0.29166667  0.45833333  0.40625000  1.0
  As  As1692  1  0.29166667  0.45833333  0.53125000  1.0
  As  As1693  1  0.29166667  0.45833333  0.65625000  1.0
  As  As1694  1  0.29166667  0.45833333  0.78125000  1.0
  As  As1695  1  0.29166667  0.45833333  0.90625000  1.0
  As  As1696  1  0.29166667  0.58333333  0.03125000  1.0
  As  As1697  1  0.29166667  0.58333333  0.15625000  1.0
  As  As1698  1  0.29166667  0.58333333  0.28125000  1.0
  As  As1699  1  0.29166667  0.58333333  0.40625000  1.0
  As  As1700  1  0.29166667  0.58333333  0.53125000  1.0
  As  As1701  1  0.29166667  0.58333333  0.65625000  1.0
  As  As1702  1  0.29166667  0.58333333  0.78125000  1.0
  As  As1703  1  0.29166667  0.58333333  0.90625000  1.0
  As  As1704  1  0.29166667  0.70833333  0.03125000  1.0
  As  As1705  1  0.29166667  0.70833333  0.15625000  1.0
  As  As1706  1  0.29166667  0.70833333  0.28125000  1.0
  As  As1707  1  0.29166667  0.70833333  0.40625000  1.0
  As  As1708  1  0.29166667  0.70833333  0.53125000  1.0
  As  As1709  1  0.29166667  0.70833333  0.65625000  1.0
  As  As1710  1  0.29166667  0.70833333  0.78125000  1.0
  As  As1711  1  0.29166667  0.70833333  0.90625000  1.0
  As  As1712  1  0.29166667  0.83333333  0.03125000  1.0
  As  As1713  1  0.29166667  0.83333333  0.15625000  1.0
  As  As1714  1  0.29166667  0.83333333  0.28125000  1.0
  As  As1715  1  0.29166667  0.83333333  0.40625000  1.0
  As  As1716  1  0.29166667  0.83333333  0.53125000  1.0
  As  As1717  1  0.29166667  0.83333333  0.65625000  1.0
  As  As1718  1  0.29166667  0.83333333  0.78125000  1.0
  As  As1719  1  0.29166667  0.83333333  0.90625000  1.0
  As  As1720  1  0.29166667  0.95833333  0.03125000  1.0
  As  As1721  1  0.29166667  0.95833333  0.15625000  1.0
  As  As1722  1  0.29166667  0.95833333  0.28125000  1.0
  As  As1723  1  0.29166667  0.95833333  0.40625000  1.0
  As  As1724  1  0.29166667  0.95833333  0.53125000  1.0
  As  As1725  1  0.29166667  0.95833333  0.65625000  1.0
  As  As1726  1  0.29166667  0.95833333  0.78125000  1.0
  As  As1727  1  0.29166667  0.95833333  0.90625000  1.0
  As  As1728  1  0.41666667  0.08333333  0.03125000  1.0
  As  As1729  1  0.41666667  0.08333333  0.15625000  1.0
  As  As1730  1  0.41666667  0.08333333  0.28125000  1.0
  As  As1731  1  0.41666667  0.08333333  0.40625000  1.0
  As  As1732  1  0.41666667  0.08333333  0.53125000  1.0
  As  As1733  1  0.41666667  0.08333333  0.65625000  1.0
  As  As1734  1  0.41666667  0.08333333  0.78125000  1.0
  As  As1735  1  0.41666667  0.08333333  0.90625000  1.0
  As  As1736  1  0.41666667  0.20833333  0.03125000  1.0
  As  As1737  1  0.41666667  0.20833333  0.15625000  1.0
  As  As1738  1  0.41666667  0.20833333  0.28125000  1.0
  As  As1739  1  0.41666667  0.20833333  0.40625000  1.0
  As  As1740  1  0.41666667  0.20833333  0.53125000  1.0
  As  As1741  1  0.41666667  0.20833333  0.65625000  1.0
  As  As1742  1  0.41666667  0.20833333  0.78125000  1.0
  As  As1743  1  0.41666667  0.20833333  0.90625000  1.0
  As  As1744  1  0.41666667  0.33333333  0.03125000  1.0
  As  As1745  1  0.41666667  0.33333333  0.15625000  1.0
  As  As1746  1  0.41666667  0.33333333  0.28125000  1.0
  As  As1747  1  0.41666667  0.33333333  0.40625000  1.0
  As  As1748  1  0.41666667  0.33333333  0.53125000  1.0
  As  As1749  1  0.41666667  0.33333333  0.65625000  1.0
  As  As1750  1  0.41666667  0.33333333  0.78125000  1.0
  As  As1751  1  0.41666667  0.33333333  0.90625000  1.0
  As  As1752  1  0.41666667  0.45833333  0.03125000  1.0
  As  As1753  1  0.41666667  0.45833333  0.15625000  1.0
  As  As1754  1  0.41666667  0.45833333  0.28125000  1.0
  As  As1755  1  0.41666667  0.45833333  0.40625000  1.0
  As  As1756  1  0.41666667  0.45833333  0.53125000  1.0
  As  As1757  1  0.41666667  0.45833333  0.65625000  1.0
  As  As1758  1  0.41666667  0.45833333  0.78125000  1.0
  As  As1759  1  0.41666667  0.45833333  0.90625000  1.0
  As  As1760  1  0.41666667  0.58333333  0.03125000  1.0
  As  As1761  1  0.41666667  0.58333333  0.15625000  1.0
  As  As1762  1  0.41666667  0.58333333  0.28125000  1.0
  As  As1763  1  0.41666667  0.58333333  0.40625000  1.0
  As  As1764  1  0.41666667  0.58333333  0.53125000  1.0
  As  As1765  1  0.41666667  0.58333333  0.65625000  1.0
  As  As1766  1  0.41666667  0.58333333  0.78125000  1.0
  As  As1767  1  0.41666667  0.58333333  0.90625000  1.0
  As  As1768  1  0.41666667  0.70833333  0.03125000  1.0
  As  As1769  1  0.41666667  0.70833333  0.15625000  1.0
  As  As1770  1  0.41666667  0.70833333  0.28125000  1.0
  As  As1771  1  0.41666667  0.70833333  0.40625000  1.0
  As  As1772  1  0.41666667  0.70833333  0.53125000  1.0
  As  As1773  1  0.41666667  0.70833333  0.65625000  1.0
  As  As1774  1  0.41666667  0.70833333  0.78125000  1.0
  As  As1775  1  0.41666667  0.70833333  0.90625000  1.0
  As  As1776  1  0.41666667  0.83333333  0.03125000  1.0
  As  As1777  1  0.41666667  0.83333333  0.15625000  1.0
  As  As1778  1  0.41666667  0.83333333  0.28125000  1.0
  As  As1779  1  0.41666667  0.83333333  0.40625000  1.0
  As  As1780  1  0.41666667  0.83333333  0.53125000  1.0
  As  As1781  1  0.41666667  0.83333333  0.65625000  1.0
  As  As1782  1  0.41666667  0.83333333  0.78125000  1.0
  As  As1783  1  0.41666667  0.83333333  0.90625000  1.0
  As  As1784  1  0.41666667  0.95833333  0.03125000  1.0
  As  As1785  1  0.41666667  0.95833333  0.15625000  1.0
  As  As1786  1  0.41666667  0.95833333  0.28125000  1.0
  As  As1787  1  0.41666667  0.95833333  0.40625000  1.0
  As  As1788  1  0.41666667  0.95833333  0.53125000  1.0
  As  As1789  1  0.41666667  0.95833333  0.65625000  1.0
  As  As1790  1  0.41666667  0.95833333  0.78125000  1.0
  As  As1791  1  0.41666667  0.95833333  0.90625000  1.0
  As  As1792  1  0.54166667  0.08333333  0.03125000  1.0
  As  As1793  1  0.54166667  0.08333333  0.15625000  1.0
  As  As1794  1  0.54166667  0.08333333  0.28125000  1.0
  As  As1795  1  0.54166667  0.08333333  0.40625000  1.0
  As  As1796  1  0.54166667  0.08333333  0.53125000  1.0
  As  As1797  1  0.54166667  0.08333333  0.65625000  1.0
  As  As1798  1  0.54166667  0.08333333  0.78125000  1.0
  As  As1799  1  0.54166667  0.08333333  0.90625000  1.0
  As  As1800  1  0.54166667  0.20833333  0.03125000  1.0
  As  As1801  1  0.54166667  0.20833333  0.15625000  1.0
  As  As1802  1  0.54166667  0.20833333  0.28125000  1.0
  As  As1803  1  0.54166667  0.20833333  0.40625000  1.0
  As  As1804  1  0.54166667  0.20833333  0.53125000  1.0
  As  As1805  1  0.54166667  0.20833333  0.65625000  1.0
  As  As1806  1  0.54166667  0.20833333  0.78125000  1.0
  As  As1807  1  0.54166667  0.20833333  0.90625000  1.0
  As  As1808  1  0.54166667  0.33333333  0.03125000  1.0
  As  As1809  1  0.54166667  0.33333333  0.15625000  1.0
  As  As1810  1  0.54166667  0.33333333  0.28125000  1.0
  As  As1811  1  0.54166667  0.33333333  0.40625000  1.0
  As  As1812  1  0.54166667  0.33333333  0.53125000  1.0
  As  As1813  1  0.54166667  0.33333333  0.65625000  1.0
  As  As1814  1  0.54166667  0.33333333  0.78125000  1.0
  As  As1815  1  0.54166667  0.33333333  0.90625000  1.0
  As  As1816  1  0.54166667  0.45833333  0.03125000  1.0
  As  As1817  1  0.54166667  0.45833333  0.15625000  1.0
  As  As1818  1  0.54166667  0.45833333  0.28125000  1.0
  As  As1819  1  0.54166667  0.45833333  0.40625000  1.0
  As  As1820  1  0.54166667  0.45833333  0.53125000  1.0
  As  As1821  1  0.54166667  0.45833333  0.65625000  1.0
  As  As1822  1  0.54166667  0.45833333  0.78125000  1.0
  As  As1823  1  0.54166667  0.45833333  0.90625000  1.0
  As  As1824  1  0.54166667  0.58333333  0.03125000  1.0
  As  As1825  1  0.54166667  0.58333333  0.15625000  1.0
  As  As1826  1  0.54166667  0.58333333  0.28125000  1.0
  As  As1827  1  0.54166667  0.58333333  0.40625000  1.0
  As  As1828  1  0.54166667  0.58333333  0.53125000  1.0
  As  As1829  1  0.54166667  0.58333333  0.65625000  1.0
  As  As1830  1  0.54166667  0.58333333  0.78125000  1.0
  As  As1831  1  0.54166667  0.58333333  0.90625000  1.0
  As  As1832  1  0.54166667  0.70833333  0.03125000  1.0
  As  As1833  1  0.54166667  0.70833333  0.15625000  1.0
  As  As1834  1  0.54166667  0.70833333  0.28125000  1.0
  As  As1835  1  0.54166667  0.70833333  0.40625000  1.0
  As  As1836  1  0.54166667  0.70833333  0.53125000  1.0
  As  As1837  1  0.54166667  0.70833333  0.65625000  1.0
  As  As1838  1  0.54166667  0.70833333  0.78125000  1.0
  As  As1839  1  0.54166667  0.70833333  0.90625000  1.0
  As  As1840  1  0.54166667  0.83333333  0.03125000  1.0
  As  As1841  1  0.54166667  0.83333333  0.15625000  1.0
  As  As1842  1  0.54166667  0.83333333  0.28125000  1.0
  As  As1843  1  0.54166667  0.83333333  0.40625000  1.0
  As  As1844  1  0.54166667  0.83333333  0.53125000  1.0
  As  As1845  1  0.54166667  0.83333333  0.65625000  1.0
  As  As1846  1  0.54166667  0.83333333  0.78125000  1.0
  As  As1847  1  0.54166667  0.83333333  0.90625000  1.0
  As  As1848  1  0.54166667  0.95833333  0.03125000  1.0
  As  As1849  1  0.54166667  0.95833333  0.15625000  1.0
  As  As1850  1  0.54166667  0.95833333  0.28125000  1.0
  As  As1851  1  0.54166667  0.95833333  0.40625000  1.0
  As  As1852  1  0.54166667  0.95833333  0.53125000  1.0
  As  As1853  1  0.54166667  0.95833333  0.65625000  1.0
  As  As1854  1  0.54166667  0.95833333  0.78125000  1.0
  As  As1855  1  0.54166667  0.95833333  0.90625000  1.0
  As  As1856  1  0.66666667  0.08333333  0.03125000  1.0
  As  As1857  1  0.66666667  0.08333333  0.15625000  1.0
  As  As1858  1  0.66666667  0.08333333  0.28125000  1.0
  As  As1859  1  0.66666667  0.08333333  0.40625000  1.0
  As  As1860  1  0.66666667  0.08333333  0.53125000  1.0
  As  As1861  1  0.66666667  0.08333333  0.65625000  1.0
  As  As1862  1  0.66666667  0.08333333  0.78125000  1.0
  As  As1863  1  0.66666667  0.08333333  0.90625000  1.0
  As  As1864  1  0.66666667  0.20833333  0.03125000  1.0
  As  As1865  1  0.66666667  0.20833333  0.15625000  1.0
  As  As1866  1  0.66666667  0.20833333  0.28125000  1.0
  As  As1867  1  0.66666667  0.20833333  0.40625000  1.0
  As  As1868  1  0.66666667  0.20833333  0.53125000  1.0
  As  As1869  1  0.66666667  0.20833333  0.65625000  1.0
  As  As1870  1  0.66666667  0.20833333  0.78125000  1.0
  As  As1871  1  0.66666667  0.20833333  0.90625000  1.0
  As  As1872  1  0.66666667  0.33333333  0.03125000  1.0
  As  As1873  1  0.66666667  0.33333333  0.15625000  1.0
  As  As1874  1  0.66666667  0.33333333  0.28125000  1.0
  As  As1875  1  0.66666667  0.33333333  0.40625000  1.0
  As  As1876  1  0.66666667  0.33333333  0.53125000  1.0
  As  As1877  1  0.66666667  0.33333333  0.65625000  1.0
  As  As1878  1  0.66666667  0.33333333  0.78125000  1.0
  As  As1879  1  0.66666667  0.33333333  0.90625000  1.0
  As  As1880  1  0.66666667  0.45833333  0.03125000  1.0
  As  As1881  1  0.66666667  0.45833333  0.15625000  1.0
  As  As1882  1  0.66666667  0.45833333  0.28125000  1.0
  As  As1883  1  0.66666667  0.45833333  0.40625000  1.0
  As  As1884  1  0.66666667  0.45833333  0.53125000  1.0
  As  As1885  1  0.66666667  0.45833333  0.65625000  1.0
  As  As1886  1  0.66666667  0.45833333  0.78125000  1.0
  As  As1887  1  0.66666667  0.45833333  0.90625000  1.0
  As  As1888  1  0.66666667  0.58333333  0.03125000  1.0
  As  As1889  1  0.66666667  0.58333333  0.15625000  1.0
  As  As1890  1  0.66666667  0.58333333  0.28125000  1.0
  As  As1891  1  0.66666667  0.58333333  0.40625000  1.0
  As  As1892  1  0.66666667  0.58333333  0.53125000  1.0
  As  As1893  1  0.66666667  0.58333333  0.65625000  1.0
  As  As1894  1  0.66666667  0.58333333  0.78125000  1.0
  As  As1895  1  0.66666667  0.58333333  0.90625000  1.0
  As  As1896  1  0.66666667  0.70833333  0.03125000  1.0
  As  As1897  1  0.66666667  0.70833333  0.15625000  1.0
  As  As1898  1  0.66666667  0.70833333  0.28125000  1.0
  As  As1899  1  0.66666667  0.70833333  0.40625000  1.0
  As  As1900  1  0.66666667  0.70833333  0.53125000  1.0
  As  As1901  1  0.66666667  0.70833333  0.65625000  1.0
  As  As1902  1  0.66666667  0.70833333  0.78125000  1.0
  As  As1903  1  0.66666667  0.70833333  0.90625000  1.0
  As  As1904  1  0.66666667  0.83333333  0.03125000  1.0
  As  As1905  1  0.66666667  0.83333333  0.15625000  1.0
  As  As1906  1  0.66666667  0.83333333  0.28125000  1.0
  As  As1907  1  0.66666667  0.83333333  0.40625000  1.0
  As  As1908  1  0.66666667  0.83333333  0.53125000  1.0
  As  As1909  1  0.66666667  0.83333333  0.65625000  1.0
  As  As1910  1  0.66666667  0.83333333  0.78125000  1.0
  As  As1911  1  0.66666667  0.83333333  0.90625000  1.0
  As  As1912  1  0.66666667  0.95833333  0.03125000  1.0
  As  As1913  1  0.66666667  0.95833333  0.15625000  1.0
  As  As1914  1  0.66666667  0.95833333  0.28125000  1.0
  As  As1915  1  0.66666667  0.95833333  0.40625000  1.0
  As  As1916  1  0.66666667  0.95833333  0.53125000  1.0
  As  As1917  1  0.66666667  0.95833333  0.65625000  1.0
  As  As1918  1  0.66666667  0.95833333  0.78125000  1.0
  As  As1919  1  0.66666667  0.95833333  0.90625000  1.0
  As  As1920  1  0.79166667  0.08333333  0.03125000  1.0
  As  As1921  1  0.79166667  0.08333333  0.15625000  1.0
  As  As1922  1  0.79166667  0.08333333  0.28125000  1.0
  As  As1923  1  0.79166667  0.08333333  0.40625000  1.0
  As  As1924  1  0.79166667  0.08333333  0.53125000  1.0
  As  As1925  1  0.79166667  0.08333333  0.65625000  1.0
  As  As1926  1  0.79166667  0.08333333  0.78125000  1.0
  As  As1927  1  0.79166667  0.08333333  0.90625000  1.0
  As  As1928  1  0.79166667  0.20833333  0.03125000  1.0
  As  As1929  1  0.79166667  0.20833333  0.15625000  1.0
  As  As1930  1  0.79166667  0.20833333  0.28125000  1.0
  As  As1931  1  0.79166667  0.20833333  0.40625000  1.0
  As  As1932  1  0.79166667  0.20833333  0.53125000  1.0
  As  As1933  1  0.79166667  0.20833333  0.65625000  1.0
  As  As1934  1  0.79166667  0.20833333  0.78125000  1.0
  As  As1935  1  0.79166667  0.20833333  0.90625000  1.0
  As  As1936  1  0.79166667  0.33333333  0.03125000  1.0
  As  As1937  1  0.79166667  0.33333333  0.15625000  1.0
  As  As1938  1  0.79166667  0.33333333  0.28125000  1.0
  As  As1939  1  0.79166667  0.33333333  0.40625000  1.0
  As  As1940  1  0.79166667  0.33333333  0.53125000  1.0
  As  As1941  1  0.79166667  0.33333333  0.65625000  1.0
  As  As1942  1  0.79166667  0.33333333  0.78125000  1.0
  As  As1943  1  0.79166667  0.33333333  0.90625000  1.0
  As  As1944  1  0.79166667  0.45833333  0.03125000  1.0
  As  As1945  1  0.79166667  0.45833333  0.15625000  1.0
  As  As1946  1  0.79166667  0.45833333  0.28125000  1.0
  As  As1947  1  0.79166667  0.45833333  0.40625000  1.0
  As  As1948  1  0.79166667  0.45833333  0.53125000  1.0
  As  As1949  1  0.79166667  0.45833333  0.65625000  1.0
  As  As1950  1  0.79166667  0.45833333  0.78125000  1.0
  As  As1951  1  0.79166667  0.45833333  0.90625000  1.0
  As  As1952  1  0.79166667  0.58333333  0.03125000  1.0
  As  As1953  1  0.79166667  0.58333333  0.15625000  1.0
  As  As1954  1  0.79166667  0.58333333  0.28125000  1.0
  As  As1955  1  0.79166667  0.58333333  0.40625000  1.0
  As  As1956  1  0.79166667  0.58333333  0.53125000  1.0
  As  As1957  1  0.79166667  0.58333333  0.65625000  1.0
  As  As1958  1  0.79166667  0.58333333  0.78125000  1.0
  As  As1959  1  0.79166667  0.58333333  0.90625000  1.0
  As  As1960  1  0.79166667  0.70833333  0.03125000  1.0
  As  As1961  1  0.79166667  0.70833333  0.15625000  1.0
  As  As1962  1  0.79166667  0.70833333  0.28125000  1.0
  As  As1963  1  0.79166667  0.70833333  0.40625000  1.0
  As  As1964  1  0.79166667  0.70833333  0.53125000  1.0
  As  As1965  1  0.79166667  0.70833333  0.65625000  1.0
  As  As1966  1  0.79166667  0.70833333  0.78125000  1.0
  As  As1967  1  0.79166667  0.70833333  0.90625000  1.0
  As  As1968  1  0.79166667  0.83333333  0.03125000  1.0
  As  As1969  1  0.79166667  0.83333333  0.15625000  1.0
  As  As1970  1  0.79166667  0.83333333  0.28125000  1.0
  As  As1971  1  0.79166667  0.83333333  0.40625000  1.0
  As  As1972  1  0.79166667  0.83333333  0.53125000  1.0
  As  As1973  1  0.79166667  0.83333333  0.65625000  1.0
  As  As1974  1  0.79166667  0.83333333  0.78125000  1.0
  As  As1975  1  0.79166667  0.83333333  0.90625000  1.0
  As  As1976  1  0.79166667  0.95833333  0.03125000  1.0
  As  As1977  1  0.79166667  0.95833333  0.15625000  1.0
  As  As1978  1  0.79166667  0.95833333  0.28125000  1.0
  As  As1979  1  0.79166667  0.95833333  0.40625000  1.0
  As  As1980  1  0.79166667  0.95833333  0.53125000  1.0
  As  As1981  1  0.79166667  0.95833333  0.65625000  1.0
  As  As1982  1  0.79166667  0.95833333  0.78125000  1.0
  As  As1983  1  0.79166667  0.95833333  0.90625000  1.0
  As  As1984  1  0.91666667  0.08333333  0.03125000  1.0
  As  As1985  1  0.91666667  0.08333333  0.15625000  1.0
  As  As1986  1  0.91666667  0.08333333  0.28125000  1.0
  As  As1987  1  0.91666667  0.08333333  0.40625000  1.0
  As  As1988  1  0.91666667  0.08333333  0.53125000  1.0
  As  As1989  1  0.91666667  0.08333333  0.65625000  1.0
  As  As1990  1  0.91666667  0.08333333  0.78125000  1.0
  As  As1991  1  0.91666667  0.08333333  0.90625000  1.0
  As  As1992  1  0.91666667  0.20833333  0.03125000  1.0
  As  As1993  1  0.91666667  0.20833333  0.15625000  1.0
  As  As1994  1  0.91666667  0.20833333  0.28125000  1.0
  As  As1995  1  0.91666667  0.20833333  0.40625000  1.0
  As  As1996  1  0.91666667  0.20833333  0.53125000  1.0
  As  As1997  1  0.91666667  0.20833333  0.65625000  1.0
  As  As1998  1  0.91666667  0.20833333  0.78125000  1.0
  As  As1999  1  0.91666667  0.20833333  0.90625000  1.0
  As  As2000  1  0.91666667  0.33333333  0.03125000  1.0
  As  As2001  1  0.91666667  0.33333333  0.15625000  1.0
  As  As2002  1  0.91666667  0.33333333  0.28125000  1.0
  As  As2003  1  0.91666667  0.33333333  0.40625000  1.0
  As  As2004  1  0.91666667  0.33333333  0.53125000  1.0
  As  As2005  1  0.91666667  0.33333333  0.65625000  1.0
  As  As2006  1  0.91666667  0.33333333  0.78125000  1.0
  As  As2007  1  0.91666667  0.33333333  0.90625000  1.0
  As  As2008  1  0.91666667  0.45833333  0.03125000  1.0
  As  As2009  1  0.91666667  0.45833333  0.15625000  1.0
  As  As2010  1  0.91666667  0.45833333  0.28125000  1.0
  As  As2011  1  0.91666667  0.45833333  0.40625000  1.0
  As  As2012  1  0.91666667  0.45833333  0.53125000  1.0
  As  As2013  1  0.91666667  0.45833333  0.65625000  1.0
  As  As2014  1  0.91666667  0.45833333  0.78125000  1.0
  As  As2015  1  0.91666667  0.45833333  0.90625000  1.0
  As  As2016  1  0.91666667  0.58333333  0.03125000  1.0
  As  As2017  1  0.91666667  0.58333333  0.15625000  1.0
  As  As2018  1  0.91666667  0.58333333  0.28125000  1.0
  As  As2019  1  0.91666667  0.58333333  0.40625000  1.0
  As  As2020  1  0.91666667  0.58333333  0.53125000  1.0
  As  As2021  1  0.91666667  0.58333333  0.65625000  1.0
  As  As2022  1  0.91666667  0.58333333  0.78125000  1.0
  As  As2023  1  0.91666667  0.58333333  0.90625000  1.0
  As  As2024  1  0.91666667  0.70833333  0.03125000  1.0
  As  As2025  1  0.91666667  0.70833333  0.15625000  1.0
  As  As2026  1  0.91666667  0.70833333  0.28125000  1.0
  As  As2027  1  0.91666667  0.70833333  0.40625000  1.0
  As  As2028  1  0.91666667  0.70833333  0.53125000  1.0
  As  As2029  1  0.91666667  0.70833333  0.65625000  1.0
  As  As2030  1  0.91666667  0.70833333  0.78125000  1.0
  As  As2031  1  0.91666667  0.70833333  0.90625000  1.0
  As  As2032  1  0.91666667  0.83333333  0.03125000  1.0
  As  As2033  1  0.91666667  0.83333333  0.15625000  1.0
  As  As2034  1  0.91666667  0.83333333  0.28125000  1.0
  As  As2035  1  0.91666667  0.83333333  0.40625000  1.0
  As  As2036  1  0.91666667  0.83333333  0.53125000  1.0
  As  As2037  1  0.91666667  0.83333333  0.65625000  1.0
  As  As2038  1  0.91666667  0.83333333  0.78125000  1.0
  As  As2039  1  0.91666667  0.83333333  0.90625000  1.0
  As  As2040  1  0.91666667  0.95833333  0.03125000  1.0
  As  As2041  1  0.91666667  0.95833333  0.15625000  1.0
  As  As2042  1  0.91666667  0.95833333  0.28125000  1.0
  As  As2043  1  0.91666667  0.95833333  0.40625000  1.0
  As  As2044  1  0.91666667  0.95833333  0.53125000  1.0
  As  As2045  1  0.91666667  0.95833333  0.65625000  1.0
  As  As2046  1  0.91666667  0.95833333  0.78125000  1.0
  As  As2047  1  0.91666667  0.95833333  0.90625000  1.0
