# generated using pymatgen
data_MnAs
_symmetry_space_group_name_H-M   'P 1'
_cell_length_a   7.29160810
_cell_length_b   7.29160810
_cell_length_c   10.09013200
_cell_angle_alpha   90.00000000
_cell_angle_beta   90.00000000
_cell_angle_gamma   120.00000000
_symmetry_Int_Tables_number   1
_chemical_formula_structural   MnAs
_chemical_formula_sum   'Mn16 As16'
_cell_volume   464.59455634
_cell_formula_units_Z   16
loop_
 _symmetry_equiv_pos_site_id
 _symmetry_equiv_pos_as_xyz
  1  'x, y, z'
loop_
 _atom_site_type_symbol
 _atom_site_label
 _atom_site_symmetry_multiplicity
 _atom_site_fract_x
 _atom_site_fract_y
 _atom_site_fract_z
 _atom_site_occupancy
  Mn  Mn0  1  0.00000000  0.00000000  0.00000000  1
  Mn  Mn1  1  0.00000000  0.00000000  0.50000000  1
  Mn  Mn2  1  0.00000000  0.50000000  0.00000000  1
  Mn  Mn3  1  0.00000000  0.50000000  0.50000000  1
  Mn  Mn4  1  0.50000000  0.00000000  0.00000000  1
  Mn  Mn5  1  0.50000000  0.00000000  0.50000000  1
  Mn  Mn6  1  0.50000000  0.50000000  0.00000000  1
  Mn  Mn7  1  0.50000000  0.50000000  0.50000000  1
  Mn  Mn8  1  0.00000000  0.00000000  0.25000000  1
  Mn  Mn9  1  0.00000000  0.00000000  0.75000000  1
  Mn  Mn10  1  0.00000000  0.50000000  0.25000000  1
  Mn  Mn11  1  0.00000000  0.50000000  0.75000000  1
  Mn  Mn12  1  0.50000000  0.00000000  0.25000000  1
  Mn  Mn13  1  0.50000000  0.00000000  0.75000000  1
  Mn  Mn14  1  0.50000000  0.50000000  0.25000000  1
  Mn  Mn15  1  0.50000000  0.50000000  0.75000000  1
  As  As16  1  0.16666667  0.33333334  0.12500000  1
  As  As17  1  0.16666667  0.33333334  0.62500000  1
  As  As18  1  0.16666666  0.83333333  0.12500000  1
  As  As19  1  0.16666666  0.83333333  0.62500000  1
  As  As20  1  0.66666667  0.33333334  0.12500000  1
  As  As21  1  0.66666667  0.33333334  0.62500000  1
  As  As22  1  0.66666667  0.83333333  0.12500000  1
  As  As23  1  0.66666667  0.83333333  0.62500000  1
  As  As24  1  0.33333334  0.16666666  0.37500000  1
  As  As25  1  0.33333334  0.16666666  0.87500000  1
  As  As26  1  0.33333334  0.66666667  0.37500000  1
  As  As27  1  0.33333334  0.66666667  0.87500000  1
  As  As28  1  0.83333334  0.16666666  0.37500000  1
  As  As29  1  0.83333334  0.16666666  0.87500000  1
  As  As30  1  0.83333334  0.66666667  0.37500000  1
  As  As31  1  0.83333334  0.66666667  0.87500000  1
